/*---------------------------------------------------------------------------*\
| =========                 |                                                 |
| \\      /  F ield         | OpenFOAM: The Open Source CFD Toolbox           |
|  \\    /   O peration     | Version:  2312                                  |
|   \\  /    A nd           | Website:  www.openfoam.com                      |
|    \\/     M anipulation  |                                                 |
\*---------------------------------------------------------------------------*/
Build  : _1d8f0d55f7-20231221 OPENFOAM=2312 version=v2312
Arch   : "LSB;label=32;scalar=64"
Exec   : simpleFoam
Date   : Mar 04 2024
Time   : 16:15:39
Host   : popeye03
PID    : 1669801
I/O    : uncollated
Case   : /home/user03/OpenFOAM/user03-v2312/run/pitzDaily
nProcs : 1
trapFpe: Floating point exception trapping enabled (FOAM_SIGFPE).
fileModificationChecking : Monitoring run-time modified files using timeStampMaster (fileModificationSkew 5, maxFileModificationPolls 20)
allowSystemOperations : Allowing user-supplied system call operations

// * * * * * * * * * * * * * * * * * * * * * * * * * * * * * * * * * * * * * //
Create time

Create mesh for time = 0


SIMPLE: convergence criteria
    field p	 tolerance 0.01
    field U	 tolerance 0.001
    field "(k|epsilon|omega|f|v2)"	 tolerance 0.001

Reading field p

Reading field U

Reading/calculating face flux field phi

Selecting incompressible transport model Newtonian
Selecting turbulence model type RAS
Selecting RAS turbulence model kEpsilon
RAS
{
    RASModel        kEpsilon;
    turbulence      on;
    printCoeffs     on;
    Cmu             0.09;
    C1              1.44;
    C2              1.92;
    C3              0;
    sigmak          1;
    sigmaEps        1.3;
}

No MRF models present

No finite volume options present

Starting time loop

streamLine streamlines:
    Employing velocity field U
    automatic track length specified through number of sub cycles : 5

Time = 1

smoothSolver:  Solving for Ux, Initial residual = 1, Final residual = 0.0426357, No Iterations 1
smoothSolver:  Solving for Uy, Initial residual = 1, Final residual = 0.0859637, No Iterations 1
GAMG:  Solving for p, Initial residual = 1, Final residual = 0.0427342, No Iterations 20
GAMG:  Solving for p, Initial residual = 0.0177791, Final residual = 0.000768914, No Iterations 5
time step continuity errors : sum local = 0.823586, global = 0.086191, cumulative = 0.086191
smoothSolver:  Solving for epsilon, Initial residual = 0.122027, Final residual = 0.00394056, No Iterations 2
smoothSolver:  Solving for k, Initial residual = 1, Final residual = 0.0296233, No Iterations 2
ExecutionTime = 0.4 s  ClockTime = 0 s

fieldMinMax minMax write:
    min(mag(U)) = 0 in cell 522 at location (-0.0198086 0.0254 -1.47343e-21)
    max(mag(U)) = 6.5 in cell 0 at location (-0.0206 0.00015942 1.4001e-21)

Time = 2

smoothSolver:  Solving for Ux, Initial residual = 0.78478, Final residual = 0.0458799, No Iterations 2
smoothSolver:  Solving for Uy, Initial residual = 0.480614, Final residual = 0.033235, No Iterations 2
GAMG:  Solving for p, Initial residual = 0.0758071, Final residual = 0.00344321, No Iterations 14
GAMG:  Solving for p, Initial residual = 0.00660431, Final residual = 0.000320335, No Iterations 11
time step continuity errors : sum local = 0.160391, global = -0.0139717, cumulative = 0.0722192
smoothSolver:  Solving for epsilon, Initial residual = 0.054085, Final residual = 0.00104194, No Iterations 2
smoothSolver:  Solving for k, Initial residual = 0.593946, Final residual = 0.0139687, No Iterations 2
ExecutionTime = 0.49 s  ClockTime = 0 s

fieldMinMax minMax write:
    min(mag(U)) = 0 in cell 522 at location (-0.0198086 0.0254 -1.47343e-21)
    max(mag(U)) = 11.3897 in cell 17 at location (-0.000395709 0.00015942 -2.48511e-21)

Time = 3

smoothSolver:  Solving for Ux, Initial residual = 0.757371, Final residual = 0.0439066, No Iterations 2
smoothSolver:  Solving for Uy, Initial residual = 0.264309, Final residual = 0.0181419, No Iterations 2
GAMG:  Solving for p, Initial residual = 0.0577087, Final residual = 0.0023164, No Iterations 20
GAMG:  Solving for p, Initial residual = 0.0238978, Final residual = 0.000954369, No Iterations 6
time step continuity errors : sum local = 0.496779, global = 0.0408701, cumulative = 0.113089
smoothSolver:  Solving for epsilon, Initial residual = 0.051185, Final residual = 0.000726455, No Iterations 2
smoothSolver:  Solving for k, Initial residual = 0.298939, Final residual = 0.00836345, No Iterations 2
ExecutionTime = 0.59 s  ClockTime = 0 s

fieldMinMax minMax write:
    min(mag(U)) = 0 in cell 522 at location (-0.0198086 0.0254 -1.47343e-21)
    max(mag(U)) = 15.5444 in cell 17 at location (-0.000395709 0.00015942 -2.48511e-21)

Time = 4

smoothSolver:  Solving for Ux, Initial residual = 0.281761, Final residual = 0.0159056, No Iterations 2
smoothSolver:  Solving for Uy, Initial residual = 0.0713195, Final residual = 0.00434471, No Iterations 2
GAMG:  Solving for p, Initial residual = 0.192831, Final residual = 0.00830132, No Iterations 24
GAMG:  Solving for p, Initial residual = 0.0176551, Final residual = 0.000802422, No Iterations 6
time step continuity errors : sum local = 0.574013, global = 0.0260882, cumulative = 0.139178
smoothSolver:  Solving for epsilon, Initial residual = 0.033494, Final residual = 0.00315851, No Iterations 1
smoothSolver:  Solving for k, Initial residual = 0.154745, Final residual = 0.00514206, No Iterations 2
ExecutionTime = 0.69 s  ClockTime = 0 s

fieldMinMax minMax write:
    min(mag(U)) = 0 in cell 522 at location (-0.0198086 0.0254 -1.47343e-21)
    max(mag(U)) = 14.1887 in cell 5400 at location (0.00026448 0.00015994 -4.71801e-21)

Time = 5

smoothSolver:  Solving for Ux, Initial residual = 0.529502, Final residual = 0.0306793, No Iterations 2
smoothSolver:  Solving for Uy, Initial residual = 0.125918, Final residual = 0.00831413, No Iterations 2
GAMG:  Solving for p, Initial residual = 0.0923103, Final residual = 0.00394054, No Iterations 7
GAMG:  Solving for p, Initial residual = 0.00687684, Final residual = 0.000331931, No Iterations 18
time step continuity errors : sum local = 0.0646307, global = -0.00207993, cumulative = 0.137098
smoothSolver:  Solving for epsilon, Initial residual = 0.0190017, Final residual = 0.000376532, No Iterations 2
smoothSolver:  Solving for k, Initial residual = 0.0943404, Final residual = 0.00263623, No Iterations 2
ExecutionTime = 0.79 s  ClockTime = 0 s

fieldMinMax minMax write:
    min(mag(U)) = 0 in cell 522 at location (-0.0198086 0.0254 -1.47343e-21)
    max(mag(U)) = 8.59323 in cell 5401 at location (0.000794924 0.000160983 -3.07394e-20)

Time = 6

smoothSolver:  Solving for Ux, Initial residual = 0.638609, Final residual = 0.036597, No Iterations 2
smoothSolver:  Solving for Uy, Initial residual = 0.181398, Final residual = 0.0119467, No Iterations 2
GAMG:  Solving for p, Initial residual = 0.0838062, Final residual = 0.0039002, No Iterations 28
GAMG:  Solving for p, Initial residual = 0.03, Final residual = 0.00146281, No Iterations 7
time step continuity errors : sum local = 0.567469, global = 0.00830696, cumulative = 0.145405
smoothSolver:  Solving for epsilon, Initial residual = 0.0270342, Final residual = 0.00263806, No Iterations 1
smoothSolver:  Solving for k, Initial residual = 0.0778821, Final residual = 0.00184678, No Iterations 2
ExecutionTime = 0.91 s  ClockTime = 1 s

fieldMinMax minMax write:
    min(mag(U)) = 0 in cell 522 at location (-0.0198086 0.0254 -1.47343e-21)
    max(mag(U)) = 8.95034 in cell 4501 at location (0.000794713 -0.00199823 -4.42711e-21)

Time = 7

smoothSolver:  Solving for Ux, Initial residual = 0.121638, Final residual = 0.00629576, No Iterations 2
smoothSolver:  Solving for Uy, Initial residual = 0.0773859, Final residual = 0.00446107, No Iterations 2
GAMG:  Solving for p, Initial residual = 0.490833, Final residual = 0.0237222, No Iterations 22
GAMG:  Solving for p, Initial residual = 0.0185131, Final residual = 0.000804657, No Iterations 8
time step continuity errors : sum local = 0.330792, global = -0.00601814, cumulative = 0.139386
smoothSolver:  Solving for epsilon, Initial residual = 0.0282368, Final residual = 0.000587566, No Iterations 2
smoothSolver:  Solving for k, Initial residual = 0.0583525, Final residual = 0.00157556, No Iterations 2
ExecutionTime = 1.01 s  ClockTime = 1 s

fieldMinMax minMax write:
    min(mag(U)) = 0 in cell 522 at location (-0.0198086 0.0254 -1.47343e-21)
    max(mag(U)) = 7.97006 in cell 4501 at location (0.000794713 -0.00199823 -4.42711e-21)

Time = 8

smoothSolver:  Solving for Ux, Initial residual = 0.492287, Final residual = 0.028518, No Iterations 2
smoothSolver:  Solving for Uy, Initial residual = 0.112378, Final residual = 0.00712886, No Iterations 2
GAMG:  Solving for p, Initial residual = 0.0918123, Final residual = 0.00314512, No Iterations 11
GAMG:  Solving for p, Initial residual = 0.0221565, Final residual = 0.000961603, No Iterations 12
time step continuity errors : sum local = 0.0652693, global = 0.00137497, cumulative = 0.140761
smoothSolver:  Solving for epsilon, Initial residual = 0.0213019, Final residual = 0.000418155, No Iterations 2
smoothSolver:  Solving for k, Initial residual = 0.0505213, Final residual = 0.00133419, No Iterations 2
ExecutionTime = 1.1 s  ClockTime = 1 s

fieldMinMax minMax write:
    min(mag(U)) = 0 in cell 522 at location (-0.0198086 0.0254 -1.47343e-21)
    max(mag(U)) = 8.96828 in cell 10824 at location (0.287428 -0.016557 1.90217e-20)

Time = 9

smoothSolver:  Solving for Ux, Initial residual = 0.400057, Final residual = 0.0230114, No Iterations 2
smoothSolver:  Solving for Uy, Initial residual = 0.0848996, Final residual = 0.00546478, No Iterations 2
GAMG:  Solving for p, Initial residual = 0.102047, Final residual = 0.00474092, No Iterations 20
GAMG:  Solving for p, Initial residual = 0.0237666, Final residual = 0.00115199, No Iterations 7
time step continuity errors : sum local = 0.285873, global = -0.0127798, cumulative = 0.127982
smoothSolver:  Solving for epsilon, Initial residual = 0.0180526, Final residual = 0.000308897, No Iterations 2
smoothSolver:  Solving for k, Initial residual = 0.0464031, Final residual = 0.00127817, No Iterations 2
ExecutionTime = 1.19 s  ClockTime = 1 s

fieldMinMax minMax write:
    min(mag(U)) = 0 in cell 522 at location (-0.0198086 0.0254 -1.47343e-21)
    max(mag(U)) = 10.1378 in cell 10824 at location (0.287428 -0.016557 1.90217e-20)

Time = 10

smoothSolver:  Solving for Ux, Initial residual = 0.0509349, Final residual = 0.00274606, No Iterations 2
smoothSolver:  Solving for Uy, Initial residual = 0.0320814, Final residual = 0.00167831, No Iterations 2
GAMG:  Solving for p, Initial residual = 0.439811, Final residual = 0.0200903, No Iterations 22
GAMG:  Solving for p, Initial residual = 0.0185434, Final residual = 0.000865357, No Iterations 9
time step continuity errors : sum local = 0.189442, global = -6.27138e-05, cumulative = 0.127919
smoothSolver:  Solving for epsilon, Initial residual = 0.0131332, Final residual = 0.000226856, No Iterations 2
smoothSolver:  Solving for k, Initial residual = 0.0411223, Final residual = 0.00110577, No Iterations 2
ExecutionTime = 1.3 s  ClockTime = 1 s

fieldMinMax minMax write:
    min(mag(U)) = 0 in cell 522 at location (-0.0198086 0.0254 -1.47343e-21)
    max(mag(U)) = 9.08616 in cell 10824 at location (0.287428 -0.016557 1.90217e-20)

Time = 11

smoothSolver:  Solving for Ux, Initial residual = 0.311337, Final residual = 0.0177316, No Iterations 2
smoothSolver:  Solving for Uy, Initial residual = 0.0642809, Final residual = 0.00391685, No Iterations 2
GAMG:  Solving for p, Initial residual = 0.112957, Final residual = 0.00521182, No Iterations 13
GAMG:  Solving for p, Initial residual = 0.0698221, Final residual = 0.00327954, No Iterations 14
time step continuity errors : sum local = 0.0820691, global = -0.000624534, cumulative = 0.127294
smoothSolver:  Solving for epsilon, Initial residual = 0.0131779, Final residual = 0.000206348, No Iterations 2
smoothSolver:  Solving for k, Initial residual = 0.0438891, Final residual = 0.00107583, No Iterations 2
ExecutionTime = 1.4 s  ClockTime = 1 s

fieldMinMax minMax write:
    min(mag(U)) = 0 in cell 522 at location (-0.0198086 0.0254 -1.47343e-21)
    max(mag(U)) = 7.34461 in cell 10824 at location (0.287428 -0.016557 1.90217e-20)

Time = 12

smoothSolver:  Solving for Ux, Initial residual = 0.238641, Final residual = 0.0134373, No Iterations 2
smoothSolver:  Solving for Uy, Initial residual = 0.0615748, Final residual = 0.00386302, No Iterations 2
GAMG:  Solving for p, Initial residual = 0.148728, Final residual = 0.00717879, No Iterations 22
GAMG:  Solving for p, Initial residual = 0.0259415, Final residual = 0.00126071, No Iterations 9
time step continuity errors : sum local = 0.209577, global = -0.000722595, cumulative = 0.126572
smoothSolver:  Solving for epsilon, Initial residual = 0.0158966, Final residual = 0.00156621, No Iterations 1
smoothSolver:  Solving for k, Initial residual = 0.0421558, Final residual = 0.001033, No Iterations 2
ExecutionTime = 1.51 s  ClockTime = 1 s

fieldMinMax minMax write:
    min(mag(U)) = 0 in cell 522 at location (-0.0198086 0.0254 -1.47343e-21)
    max(mag(U)) = 6.78911 in cell 509 at location (-0.012648 0.0247384 -2.80301e-20)

Time = 13

smoothSolver:  Solving for Ux, Initial residual = 0.082295, Final residual = 0.00463608, No Iterations 2
smoothSolver:  Solving for Uy, Initial residual = 0.032331, Final residual = 0.00182014, No Iterations 2
GAMG:  Solving for p, Initial residual = 0.248883, Final residual = 0.0118174, No Iterations 18
GAMG:  Solving for p, Initial residual = 0.0166212, Final residual = 0.000826152, No Iterations 11
time step continuity errors : sum local = 0.0987162, global = -1.58589e-05, cumulative = 0.126556
smoothSolver:  Solving for epsilon, Initial residual = 0.0159885, Final residual = 0.00157753, No Iterations 1
smoothSolver:  Solving for k, Initial residual = 0.0387942, Final residual = 0.000990812, No Iterations 2
ExecutionTime = 1.61 s  ClockTime = 1 s

fieldMinMax minMax write:
    min(mag(U)) = 0 in cell 522 at location (-0.0198086 0.0254 -1.47343e-21)
    max(mag(U)) = 7.3284 in cell 10824 at location (0.287428 -0.016557 1.90217e-20)

Time = 14

smoothSolver:  Solving for Ux, Initial residual = 0.214429, Final residual = 0.0122966, No Iterations 2
smoothSolver:  Solving for Uy, Initial residual = 0.0391408, Final residual = 0.00210902, No Iterations 2
GAMG:  Solving for p, Initial residual = 0.121392, Final residual = 0.00574267, No Iterations 12
GAMG:  Solving for p, Initial residual = 0.0379532, Final residual = 0.00160018, No Iterations 11
time step continuity errors : sum local = 0.0535428, global = 0.00260407, cumulative = 0.12916
smoothSolver:  Solving for epsilon, Initial residual = 0.0144201, Final residual = 0.00143958, No Iterations 1
smoothSolver:  Solving for k, Initial residual = 0.0359999, Final residual = 0.000952581, No Iterations 2
ExecutionTime = 1.7 s  ClockTime = 1 s

fieldMinMax minMax write:
    min(mag(U)) = 0 in cell 522 at location (-0.0198086 0.0254 -1.47343e-21)
    max(mag(U)) = 8.30855 in cell 10824 at location (0.287428 -0.016557 1.90217e-20)

Time = 15

smoothSolver:  Solving for Ux, Initial residual = 0.117016, Final residual = 0.00668948, No Iterations 2
smoothSolver:  Solving for Uy, Initial residual = 0.0320797, Final residual = 0.00175882, No Iterations 2
GAMG:  Solving for p, Initial residual = 0.176654, Final residual = 0.00750294, No Iterations 18
GAMG:  Solving for p, Initial residual = 0.0219769, Final residual = 0.00109006, No Iterations 8
time step continuity errors : sum local = 0.109282, global = 0.00285809, cumulative = 0.132018
smoothSolver:  Solving for epsilon, Initial residual = 0.0134251, Final residual = 0.000222464, No Iterations 2
smoothSolver:  Solving for k, Initial residual = 0.03344, Final residual = 0.000922837, No Iterations 2
ExecutionTime = 1.8 s  ClockTime = 1 s

fieldMinMax minMax write:
    min(mag(U)) = 0 in cell 522 at location (-0.0198086 0.0254 -1.47343e-21)
    max(mag(U)) = 8.62201 in cell 10824 at location (0.287428 -0.016557 1.90217e-20)

Time = 16

smoothSolver:  Solving for Ux, Initial residual = 0.0648599, Final residual = 0.00353989, No Iterations 2
smoothSolver:  Solving for Uy, Initial residual = 0.0281754, Final residual = 0.00157207, No Iterations 2
GAMG:  Solving for p, Initial residual = 0.262138, Final residual = 0.0125518, No Iterations 14
GAMG:  Solving for p, Initial residual = 0.0156953, Final residual = 0.000755085, No Iterations 15
time step continuity errors : sum local = 0.0448092, global = 0.000187876, cumulative = 0.132206
smoothSolver:  Solving for epsilon, Initial residual = 0.0117361, Final residual = 0.000197093, No Iterations 2
smoothSolver:  Solving for k, Initial residual = 0.0336227, Final residual = 0.000915703, No Iterations 2
ExecutionTime = 1.9 s  ClockTime = 2 s

fieldMinMax minMax write:
    min(mag(U)) = 0 in cell 522 at location (-0.0198086 0.0254 -1.47343e-21)
    max(mag(U)) = 8.18567 in cell 10824 at location (0.287428 -0.016557 1.90217e-20)

Time = 17

smoothSolver:  Solving for Ux, Initial residual = 0.120803, Final residual = 0.00674762, No Iterations 2
smoothSolver:  Solving for Uy, Initial residual = 0.0339753, Final residual = 0.0019985, No Iterations 2
GAMG:  Solving for p, Initial residual = 0.166779, Final residual = 0.0079426, No Iterations 13
GAMG:  Solving for p, Initial residual = 0.0277161, Final residual = 0.0013406, No Iterations 12
time step continuity errors : sum local = 0.0472767, global = -0.00167324, cumulative = 0.130533
smoothSolver:  Solving for epsilon, Initial residual = 0.0116662, Final residual = 0.000193987, No Iterations 2
smoothSolver:  Solving for k, Initial residual = 0.0341948, Final residual = 0.000903174, No Iterations 2
ExecutionTime = 1.99 s  ClockTime = 2 s

fieldMinMax minMax write:
    min(mag(U)) = 0 in cell 522 at location (-0.0198086 0.0254 -1.47343e-21)
    max(mag(U)) = 7.62819 in cell 10824 at location (0.287428 -0.016557 1.90217e-20)

Time = 18

smoothSolver:  Solving for Ux, Initial residual = 0.0492376, Final residual = 0.0026745, No Iterations 2
smoothSolver:  Solving for Uy, Initial residual = 0.0277335, Final residual = 0.00173887, No Iterations 2
GAMG:  Solving for p, Initial residual = 0.287161, Final residual = 0.0138974, No Iterations 16
GAMG:  Solving for p, Initial residual = 0.0209822, Final residual = 0.000950469, No Iterations 11
time step continuity errors : sum local = 0.0619649, global = -0.000554447, cumulative = 0.129978
smoothSolver:  Solving for epsilon, Initial residual = 0.0118353, Final residual = 0.000189021, No Iterations 2
smoothSolver:  Solving for k, Initial residual = 0.0325539, Final residual = 0.000869108, No Iterations 2
ExecutionTime = 2.09 s  ClockTime = 2 s

fieldMinMax minMax write:
    min(mag(U)) = 0 in cell 522 at location (-0.0198086 0.0254 -1.47343e-21)
    max(mag(U)) = 7.49963 in cell 10824 at location (0.287428 -0.016557 1.90217e-20)

Time = 19

smoothSolver:  Solving for Ux, Initial residual = 0.0572739, Final residual = 0.00323644, No Iterations 2
smoothSolver:  Solving for Uy, Initial residual = 0.0204346, Final residual = 0.0011834, No Iterations 2
GAMG:  Solving for p, Initial residual = 0.194103, Final residual = 0.00959292, No Iterations 10
GAMG:  Solving for p, Initial residual = 0.0127266, Final residual = 0.000614638, No Iterations 19
time step continuity errors : sum local = 0.0203705, global = -0.000135808, cumulative = 0.129842
smoothSolver:  Solving for epsilon, Initial residual = 0.0108077, Final residual = 0.000180497, No Iterations 2
smoothSolver:  Solving for k, Initial residual = 0.031166, Final residual = 0.000844402, No Iterations 2
ExecutionTime = 2.19 s  ClockTime = 2 s

fieldMinMax minMax write:
    min(mag(U)) = 0 in cell 522 at location (-0.0198086 0.0254 -1.47343e-21)
    max(mag(U)) = 7.78939 in cell 10824 at location (0.287428 -0.016557 1.90217e-20)

Time = 20

smoothSolver:  Solving for Ux, Initial residual = 0.0751249, Final residual = 0.00429628, No Iterations 2
smoothSolver:  Solving for Uy, Initial residual = 0.021512, Final residual = 0.00119162, No Iterations 2
GAMG:  Solving for p, Initial residual = 0.159791, Final residual = 0.00794363, No Iterations 12
GAMG:  Solving for p, Initial residual = 0.0265972, Final residual = 0.00130013, No Iterations 11
time step continuity errors : sum local = 0.0335586, global = 0.0015578, cumulative = 0.1314
smoothSolver:  Solving for epsilon, Initial residual = 0.0101372, Final residual = 0.000175138, No Iterations 2
smoothSolver:  Solving for k, Initial residual = 0.0295194, Final residual = 0.000802941, No Iterations 2
ExecutionTime = 2.28 s  ClockTime = 2 s

fieldMinMax minMax write:
    min(mag(U)) = 0 in cell 522 at location (-0.0198086 0.0254 -1.47343e-21)
    max(mag(U)) = 8.11237 in cell 10824 at location (0.287428 -0.016557 1.90217e-20)

Time = 21

smoothSolver:  Solving for Ux, Initial residual = 0.0254601, Final residual = 0.00146054, No Iterations 2
smoothSolver:  Solving for Uy, Initial residual = 0.0224399, Final residual = 0.0013132, No Iterations 2
GAMG:  Solving for p, Initial residual = 0.259991, Final residual = 0.0125994, No Iterations 14
GAMG:  Solving for p, Initial residual = 0.0206851, Final residual = 0.00102929, No Iterations 11
time step continuity errors : sum local = 0.0378356, global = 0.000458006, cumulative = 0.131858
smoothSolver:  Solving for epsilon, Initial residual = 0.00929849, Final residual = 0.000164189, No Iterations 2
smoothSolver:  Solving for k, Initial residual = 0.0282515, Final residual = 0.000774271, No Iterations 2
ExecutionTime = 2.38 s  ClockTime = 2 s

fieldMinMax minMax write:
    min(mag(U)) = 0 in cell 522 at location (-0.0198086 0.0254 -1.47343e-21)
    max(mag(U)) = 8.17176 in cell 10824 at location (0.287428 -0.016557 1.90217e-20)

Time = 22

smoothSolver:  Solving for Ux, Initial residual = 0.0364527, Final residual = 0.00198899, No Iterations 2
smoothSolver:  Solving for Uy, Initial residual = 0.0234056, Final residual = 0.00140031, No Iterations 2
GAMG:  Solving for p, Initial residual = 0.266442, Final residual = 0.0132789, No Iterations 5
GAMG:  Solving for p, Initial residual = 0.0158056, Final residual = 0.000775833, No Iterations 23
time step continuity errors : sum local = 0.011242, global = 9.40053e-05, cumulative = 0.131952
smoothSolver:  Solving for epsilon, Initial residual = 0.00859207, Final residual = 0.000154332, No Iterations 2
smoothSolver:  Solving for k, Initial residual = 0.0280158, Final residual = 0.000771597, No Iterations 2
ExecutionTime = 2.48 s  ClockTime = 2 s

fieldMinMax minMax write:
    min(mag(U)) = 0 in cell 522 at location (-0.0198086 0.0254 -1.47343e-21)
    max(mag(U)) = 8.00219 in cell 10824 at location (0.287428 -0.016557 1.90217e-20)

Time = 23

smoothSolver:  Solving for Ux, Initial residual = 0.0379718, Final residual = 0.00209063, No Iterations 2
smoothSolver:  Solving for Uy, Initial residual = 0.0225835, Final residual = 0.00140093, No Iterations 2
GAMG:  Solving for p, Initial residual = 0.246218, Final residual = 0.0114162, No Iterations 11
GAMG:  Solving for p, Initial residual = 0.020014, Final residual = 0.000948764, No Iterations 13
time step continuity errors : sum local = 0.0214381, global = 0.000981744, cumulative = 0.132934
smoothSolver:  Solving for epsilon, Initial residual = 0.0086128, Final residual = 0.00015114, No Iterations 2
smoothSolver:  Solving for k, Initial residual = 0.0274728, Final residual = 0.000753169, No Iterations 2
ExecutionTime = 2.57 s  ClockTime = 2 s

fieldMinMax minMax write:
    min(mag(U)) = 0 in cell 522 at location (-0.0198086 0.0254 -1.47343e-21)
    max(mag(U)) = 7.83543 in cell 10824 at location (0.287428 -0.016557 1.90217e-20)

Time = 24

smoothSolver:  Solving for Ux, Initial residual = 0.0146493, Final residual = 0.000807751, No Iterations 2
smoothSolver:  Solving for Uy, Initial residual = 0.0193495, Final residual = 0.00121764, No Iterations 2
GAMG:  Solving for p, Initial residual = 0.390265, Final residual = 0.0156835, No Iterations 13
GAMG:  Solving for p, Initial residual = 0.0163641, Final residual = 0.000727806, No Iterations 14
time step continuity errors : sum local = 0.0183291, global = -0.000178881, cumulative = 0.132755
smoothSolver:  Solving for epsilon, Initial residual = 0.00841265, Final residual = 0.000149456, No Iterations 2
smoothSolver:  Solving for k, Initial residual = 0.0264115, Final residual = 0.000723276, No Iterations 2
ExecutionTime = 2.67 s  ClockTime = 2 s

fieldMinMax minMax write:
    min(mag(U)) = 0 in cell 522 at location (-0.0198086 0.0254 -1.47343e-21)
    max(mag(U)) = 7.82717 in cell 10824 at location (0.287428 -0.016557 1.90217e-20)

Time = 25

smoothSolver:  Solving for Ux, Initial residual = 0.0284791, Final residual = 0.00162699, No Iterations 2
smoothSolver:  Solving for Uy, Initial residual = 0.0179691, Final residual = 0.00107606, No Iterations 2
GAMG:  Solving for p, Initial residual = 0.189224, Final residual = 0.00598443, No Iterations 6
GAMG:  Solving for p, Initial residual = 0.0101885, Final residual = 0.000482353, No Iterations 19
time step continuity errors : sum local = 0.00522717, global = -3.61371e-05, cumulative = 0.132719
smoothSolver:  Solving for epsilon, Initial residual = 0.00791218, Final residual = 0.000145125, No Iterations 2
smoothSolver:  Solving for k, Initial residual = 0.0255461, Final residual = 0.000702818, No Iterations 2
ExecutionTime = 2.76 s  ClockTime = 2 s

fieldMinMax minMax write:
    min(mag(U)) = 0 in cell 522 at location (-0.0198086 0.0254 -1.47343e-21)
    max(mag(U)) = 7.94068 in cell 10824 at location (0.287428 -0.016557 1.90217e-20)

Time = 26

smoothSolver:  Solving for Ux, Initial residual = 0.0250659, Final residual = 0.00145205, No Iterations 2
smoothSolver:  Solving for Uy, Initial residual = 0.0185358, Final residual = 0.00112484, No Iterations 2
GAMG:  Solving for p, Initial residual = 0.19026, Final residual = 0.00863116, No Iterations 11
GAMG:  Solving for p, Initial residual = 0.021638, Final residual = 0.000926873, No Iterations 14
time step continuity errors : sum local = 0.0124994, global = 0.000431834, cumulative = 0.133151
smoothSolver:  Solving for epsilon, Initial residual = 0.00747093, Final residual = 0.000138623, No Iterations 2
smoothSolver:  Solving for k, Initial residual = 0.0246478, Final residual = 0.000686269, No Iterations 2
ExecutionTime = 2.86 s  ClockTime = 2 s

fieldMinMax minMax write:
    min(mag(U)) = 0 in cell 522 at location (-0.0198086 0.0254 -1.47343e-21)
    max(mag(U)) = 8.03916 in cell 10824 at location (0.287428 -0.016557 1.90217e-20)

Time = 27

smoothSolver:  Solving for Ux, Initial residual = 0.0135253, Final residual = 0.000760559, No Iterations 2
smoothSolver:  Solving for Uy, Initial residual = 0.0192473, Final residual = 0.00120623, No Iterations 2
GAMG:  Solving for p, Initial residual = 0.279339, Final residual = 0.0106072, No Iterations 11
GAMG:  Solving for p, Initial residual = 0.017834, Final residual = 0.000835652, No Iterations 15
time step continuity errors : sum local = 0.0107473, global = 6.79316e-06, cumulative = 0.133158
smoothSolver:  Solving for epsilon, Initial residual = 0.00714716, Final residual = 0.000133968, No Iterations 2
smoothSolver:  Solving for k, Initial residual = 0.0238848, Final residual = 0.000666651, No Iterations 2
ExecutionTime = 2.95 s  ClockTime = 3 s

fieldMinMax minMax write:
    min(mag(U)) = 0 in cell 522 at location (-0.0198086 0.0254 -1.47343e-21)
    max(mag(U)) = 8.04194 in cell 10824 at location (0.287428 -0.016557 1.90217e-20)

Time = 28

smoothSolver:  Solving for Ux, Initial residual = 0.0184782, Final residual = 0.00103244, No Iterations 2
smoothSolver:  Solving for Uy, Initial residual = 0.0194262, Final residual = 0.00122121, No Iterations 2
GAMG:  Solving for p, Initial residual = 0.302558, Final residual = 0.0135333, No Iterations 6
GAMG:  Solving for p, Initial residual = 0.0169792, Final residual = 0.000792893, No Iterations 15
time step continuity errors : sum local = 0.00516938, global = 0.000324967, cumulative = 0.133483
smoothSolver:  Solving for epsilon, Initial residual = 0.00683601, Final residual = 0.000131626, No Iterations 2
smoothSolver:  Solving for k, Initial residual = 0.023383, Final residual = 0.00065316, No Iterations 2
ExecutionTime = 3.03 s  ClockTime = 3 s

fieldMinMax minMax write:
    min(mag(U)) = 0 in cell 522 at location (-0.0198086 0.0254 -1.47343e-21)
    max(mag(U)) = 7.98125 in cell 10824 at location (0.287428 -0.016557 1.90217e-20)

Time = 29

smoothSolver:  Solving for Ux, Initial residual = 0.0153164, Final residual = 0.000865611, No Iterations 2
smoothSolver:  Solving for Uy, Initial residual = 0.0181154, Final residual = 0.00115419, No Iterations 2
GAMG:  Solving for p, Initial residual = 0.341979, Final residual = 0.0150365, No Iterations 9
GAMG:  Solving for p, Initial residual = 0.0146155, Final residual = 0.000681005, No Iterations 14
time step continuity errors : sum local = 0.00877635, global = -0.000219173, cumulative = 0.133263
smoothSolver:  Solving for epsilon, Initial residual = 0.00680945, Final residual = 0.000129739, No Iterations 2
smoothSolver:  Solving for k, Initial residual = 0.0226046, Final residual = 0.000626605, No Iterations 2
ExecutionTime = 3.13 s  ClockTime = 3 s

fieldMinMax minMax write:
    min(mag(U)) = 0 in cell 522 at location (-0.0198086 0.0254 -1.47343e-21)
    max(mag(U)) = 7.9364 in cell 10824 at location (0.287428 -0.016557 1.90217e-20)

Time = 30

smoothSolver:  Solving for Ux, Initial residual = 0.012534, Final residual = 0.000731212, No Iterations 2
smoothSolver:  Solving for Uy, Initial residual = 0.0169386, Final residual = 0.00107838, No Iterations 2
GAMG:  Solving for p, Initial residual = 0.218786, Final residual = 0.0108993, No Iterations 8
GAMG:  Solving for p, Initial residual = 0.0130683, Final residual = 0.000599084, No Iterations 17
time step continuity errors : sum local = 0.00674965, global = -7.33198e-05, cumulative = 0.13319
smoothSolver:  Solving for epsilon, Initial residual = 0.00663483, Final residual = 0.000126718, No Iterations 2
smoothSolver:  Solving for k, Initial residual = 0.0219182, Final residual = 0.00061355, No Iterations 2
ExecutionTime = 3.22 s  ClockTime = 3 s

fieldMinMax minMax write:
    min(mag(U)) = 0 in cell 522 at location (-0.0198086 0.0254 -1.47343e-21)
    max(mag(U)) = 7.94772 in cell 10824 at location (0.287428 -0.016557 1.90217e-20)

Time = 31

smoothSolver:  Solving for Ux, Initial residual = 0.015006, Final residual = 0.000886013, No Iterations 2
smoothSolver:  Solving for Uy, Initial residual = 0.0168751, Final residual = 0.00105744, No Iterations 2
GAMG:  Solving for p, Initial residual = 0.171078, Final residual = 0.00708535, No Iterations 6
GAMG:  Solving for p, Initial residual = 0.0140399, Final residual = 0.000666578, No Iterations 14
time step continuity errors : sum local = 0.0039583, global = 0.00034783, cumulative = 0.133538
smoothSolver:  Solving for epsilon, Initial residual = 0.00638601, Final residual = 0.000122997, No Iterations 2
smoothSolver:  Solving for k, Initial residual = 0.021228, Final residual = 0.000596804, No Iterations 2
ExecutionTime = 3.31 s  ClockTime = 3 s

fieldMinMax minMax write:
    min(mag(U)) = 0 in cell 522 at location (-0.0198086 0.0254 -1.47343e-21)
    max(mag(U)) = 7.99012 in cell 10824 at location (0.287428 -0.016557 1.90217e-20)

Time = 32

smoothSolver:  Solving for Ux, Initial residual = 0.0124017, Final residual = 0.000733872, No Iterations 2
smoothSolver:  Solving for Uy, Initial residual = 0.0172464, Final residual = 0.00108991, No Iterations 2
GAMG:  Solving for p, Initial residual = 0.181946, Final residual = 0.00770353, No Iterations 9
GAMG:  Solving for p, Initial residual = 0.0189046, Final residual = 0.000914639, No Iterations 14
time step continuity errors : sum local = 0.00613692, global = -0.000269523, cumulative = 0.133268
smoothSolver:  Solving for epsilon, Initial residual = 0.00622949, Final residual = 0.000120766, No Iterations 2
smoothSolver:  Solving for k, Initial residual = 0.0205761, Final residual = 0.000577054, No Iterations 2
ExecutionTime = 3.4 s  ClockTime = 3 s

fieldMinMax minMax write:
    min(mag(U)) = 0 in cell 522 at location (-0.0198086 0.0254 -1.47343e-21)
    max(mag(U)) = 8.01777 in cell 10824 at location (0.287428 -0.016557 1.90217e-20)

Time = 33

smoothSolver:  Solving for Ux, Initial residual = 0.0114408, Final residual = 0.000661838, No Iterations 2
smoothSolver:  Solving for Uy, Initial residual = 0.0173202, Final residual = 0.00110974, No Iterations 2
GAMG:  Solving for p, Initial residual = 0.214958, Final residual = 0.00895949, No Iterations 6
GAMG:  Solving for p, Initial residual = 0.0168576, Final residual = 0.000791619, No Iterations 18
time step continuity errors : sum local = 0.00397704, global = 1.82073e-05, cumulative = 0.133287
smoothSolver:  Solving for epsilon, Initial residual = 0.00598795, Final residual = 0.000117204, No Iterations 2
smoothSolver:  Solving for k, Initial residual = 0.0200449, Final residual = 0.000560173, No Iterations 2
ExecutionTime = 3.5 s  ClockTime = 3 s

fieldMinMax minMax write:
    min(mag(U)) = 0 in cell 522 at location (-0.0198086 0.0254 -1.47343e-21)
    max(mag(U)) = 8.01222 in cell 10824 at location (0.287428 -0.016557 1.90217e-20)

Time = 34

smoothSolver:  Solving for Ux, Initial residual = 0.0119505, Final residual = 0.000691534, No Iterations 2
smoothSolver:  Solving for Uy, Initial residual = 0.0170207, Final residual = 0.00109383, No Iterations 2
GAMG:  Solving for p, Initial residual = 0.229255, Final residual = 0.0114425, No Iterations 5
GAMG:  Solving for p, Initial residual = 0.0108325, Final residual = 0.000472284, No Iterations 12
time step continuity errors : sum local = 0.00324104, global = 0.000228731, cumulative = 0.133515
smoothSolver:  Solving for epsilon, Initial residual = 0.00579364, Final residual = 0.000113518, No Iterations 2
smoothSolver:  Solving for k, Initial residual = 0.0195852, Final residual = 0.000547077, No Iterations 2
ExecutionTime = 3.57 s  ClockTime = 3 s

fieldMinMax minMax write:
    min(mag(U)) = 0 in cell 522 at location (-0.0198086 0.0254 -1.47343e-21)
    max(mag(U)) = 7.99023 in cell 10824 at location (0.287428 -0.016557 1.90217e-20)

Time = 35

smoothSolver:  Solving for Ux, Initial residual = 0.01083, Final residual = 0.000635555, No Iterations 2
smoothSolver:  Solving for Uy, Initial residual = 0.016463, Final residual = 0.00105988, No Iterations 2
GAMG:  Solving for p, Initial residual = 0.190081, Final residual = 0.00765654, No Iterations 7
GAMG:  Solving for p, Initial residual = 0.00941055, Final residual = 0.000446665, No Iterations 15
time step continuity errors : sum local = 0.00363318, global = 0.000120438, cumulative = 0.133636
smoothSolver:  Solving for epsilon, Initial residual = 0.00565773, Final residual = 0.00011064, No Iterations 2
smoothSolver:  Solving for k, Initial residual = 0.0189471, Final residual = 0.000528877, No Iterations 2
ExecutionTime = 3.66 s  ClockTime = 3 s

fieldMinMax minMax write:
    min(mag(U)) = 0 in cell 522 at location (-0.0198086 0.0254 -1.47343e-21)
    max(mag(U)) = 7.97772 in cell 10824 at location (0.287428 -0.016557 1.90217e-20)

Time = 36

smoothSolver:  Solving for Ux, Initial residual = 0.0105348, Final residual = 0.000630888, No Iterations 2
smoothSolver:  Solving for Uy, Initial residual = 0.0160829, Final residual = 0.00103253, No Iterations 2
GAMG:  Solving for p, Initial residual = 0.152487, Final residual = 0.00645603, No Iterations 5
GAMG:  Solving for p, Initial residual = 0.0078204, Final residual = 0.000360671, No Iterations 16
time step continuity errors : sum local = 0.00246116, global = -1.39292e-06, cumulative = 0.133634
smoothSolver:  Solving for epsilon, Initial residual = 0.00545147, Final residual = 0.00010725, No Iterations 2
smoothSolver:  Solving for k, Initial residual = 0.0184677, Final residual = 0.000517297, No Iterations 2
ExecutionTime = 3.74 s  ClockTime = 3 s

fieldMinMax minMax write:
    min(mag(U)) = 0 in cell 522 at location (-0.0198086 0.0254 -1.47343e-21)
    max(mag(U)) = 7.9836 in cell 10824 at location (0.287428 -0.016557 1.90217e-20)

Time = 37

smoothSolver:  Solving for Ux, Initial residual = 0.010506, Final residual = 0.000631746, No Iterations 2
smoothSolver:  Solving for Uy, Initial residual = 0.0160681, Final residual = 0.00103073, No Iterations 2
GAMG:  Solving for p, Initial residual = 0.139802, Final residual = 0.00532602, No Iterations 6
GAMG:  Solving for p, Initial residual = 0.00980851, Final residual = 0.000483076, No Iterations 12
time step continuity errors : sum local = 0.0024316, global = 0.000168795, cumulative = 0.133803
smoothSolver:  Solving for epsilon, Initial residual = 0.00530629, Final residual = 0.000105338, No Iterations 2
smoothSolver:  Solving for k, Initial residual = 0.0179394, Final residual = 0.000501344, No Iterations 2
ExecutionTime = 3.82 s  ClockTime = 3 s

fieldMinMax minMax write:
    min(mag(U)) = 0 in cell 522 at location (-0.0198086 0.0254 -1.47343e-21)
    max(mag(U)) = 7.99704 in cell 10824 at location (0.287428 -0.016557 1.90217e-20)

Time = 38

smoothSolver:  Solving for Ux, Initial residual = 0.00988425, Final residual = 0.000590298, No Iterations 2
smoothSolver:  Solving for Uy, Initial residual = 0.0161025, Final residual = 0.00103866, No Iterations 2
GAMG:  Solving for p, Initial residual = 0.140565, Final residual = 0.00655855, No Iterations 6
GAMG:  Solving for p, Initial residual = 0.0136418, Final residual = 0.000679374, No Iterations 13
time step continuity errors : sum local = 0.00298935, global = 4.38444e-05, cumulative = 0.133847
smoothSolver:  Solving for epsilon, Initial residual = 0.00515811, Final residual = 0.000103123, No Iterations 2
smoothSolver:  Solving for k, Initial residual = 0.017498, Final residual = 0.000489324, No Iterations 2
ExecutionTime = 3.91 s  ClockTime = 4 s

fieldMinMax minMax write:
    min(mag(U)) = 0 in cell 522 at location (-0.0198086 0.0254 -1.47343e-21)
    max(mag(U)) = 8.00346 in cell 10824 at location (0.287428 -0.016557 1.90217e-20)

Time = 39

smoothSolver:  Solving for Ux, Initial residual = 0.00988021, Final residual = 0.000586742, No Iterations 2
smoothSolver:  Solving for Uy, Initial residual = 0.016025, Final residual = 0.0010377, No Iterations 2
GAMG:  Solving for p, Initial residual = 0.144939, Final residual = 0.0055104, No Iterations 4
GAMG:  Solving for p, Initial residual = 0.00657711, Final residual = 0.00030952, No Iterations 16
time step continuity errors : sum local = 0.00162055, global = 1.15339e-05, cumulative = 0.133859
smoothSolver:  Solving for epsilon, Initial residual = 0.00505453, Final residual = 0.000100447, No Iterations 2
smoothSolver:  Solving for k, Initial residual = 0.0170755, Final residual = 0.000477999, No Iterations 2
ExecutionTime = 4 s  ClockTime = 4 s

fieldMinMax minMax write:
    min(mag(U)) = 0 in cell 522 at location (-0.0198086 0.0254 -1.47343e-21)
    max(mag(U)) = 7.99884 in cell 10824 at location (0.287428 -0.016557 1.90217e-20)

Time = 40

smoothSolver:  Solving for Ux, Initial residual = 0.0097247, Final residual = 0.000580294, No Iterations 2
smoothSolver:  Solving for Uy, Initial residual = 0.0158879, Final residual = 0.00102571, No Iterations 2
GAMG:  Solving for p, Initial residual = 0.140126, Final residual = 0.00590224, No Iterations 5
GAMG:  Solving for p, Initial residual = 0.00673465, Final residual = 0.000315801, No Iterations 13
time step continuity errors : sum local = 0.0019235, global = 0.000196361, cumulative = 0.134055
smoothSolver:  Solving for epsilon, Initial residual = 0.00499268, Final residual = 9.88731e-05, No Iterations 2
smoothSolver:  Solving for k, Initial residual = 0.0167124, Final residual = 0.000466745, No Iterations 2
ExecutionTime = 4.07 s  ClockTime = 4 s

fieldMinMax minMax write:
    min(mag(U)) = 0 in cell 522 at location (-0.0198086 0.0254 -1.47343e-21)
    max(mag(U)) = 7.98982 in cell 10824 at location (0.287428 -0.016557 1.90217e-20)

Time = 41

smoothSolver:  Solving for Ux, Initial residual = 0.00932986, Final residual = 0.000562164, No Iterations 2
smoothSolver:  Solving for Uy, Initial residual = 0.0156998, Final residual = 0.00101057, No Iterations 2
GAMG:  Solving for p, Initial residual = 0.125672, Final residual = 0.00558798, No Iterations 5
GAMG:  Solving for p, Initial residual = 0.00644662, Final residual = 0.000295734, No Iterations 14
time step continuity errors : sum local = 0.00182595, global = -9.41983e-05, cumulative = 0.133961
smoothSolver:  Solving for epsilon, Initial residual = 0.00489936, Final residual = 9.64058e-05, No Iterations 2
smoothSolver:  Solving for k, Initial residual = 0.0163472, Final residual = 0.000458421, No Iterations 2
ExecutionTime = 4.16 s  ClockTime = 4 s

fieldMinMax minMax write:
    min(mag(U)) = 0 in cell 522 at location (-0.0198086 0.0254 -1.47343e-21)
    max(mag(U)) = 7.98433 in cell 10824 at location (0.287428 -0.016557 1.90217e-20)

Time = 42

smoothSolver:  Solving for Ux, Initial residual = 0.00913886, Final residual = 0.000553974, No Iterations 2
smoothSolver:  Solving for Uy, Initial residual = 0.0155492, Final residual = 0.000999681, No Iterations 2
GAMG:  Solving for p, Initial residual = 0.114268, Final residual = 0.00414463, No Iterations 4
GAMG:  Solving for p, Initial residual = 0.00467619, Final residual = 0.000233563, No Iterations 10
time step continuity errors : sum local = 0.0013209, global = 0.000118289, cumulative = 0.134079
smoothSolver:  Solving for epsilon, Initial residual = 0.00482029, Final residual = 9.4791e-05, No Iterations 2
smoothSolver:  Solving for k, Initial residual = 0.0159441, Final residual = 0.000446895, No Iterations 2
ExecutionTime = 4.23 s  ClockTime = 4 s

fieldMinMax minMax write:
    min(mag(U)) = 0 in cell 522 at location (-0.0198086 0.0254 -1.47343e-21)
    max(mag(U)) = 7.98427 in cell 10824 at location (0.287428 -0.016557 1.90217e-20)

Time = 43

smoothSolver:  Solving for Ux, Initial residual = 0.00897409, Final residual = 0.000544343, No Iterations 2
smoothSolver:  Solving for Uy, Initial residual = 0.01546, Final residual = 0.000995593, No Iterations 2
GAMG:  Solving for p, Initial residual = 0.110304, Final residual = 0.004772, No Iterations 5
GAMG:  Solving for p, Initial residual = 0.00693143, Final residual = 0.000316096, No Iterations 12
time step continuity errors : sum local = 0.00158869, global = -0.000100244, cumulative = 0.133979
smoothSolver:  Solving for epsilon, Initial residual = 0.00471121, Final residual = 9.24652e-05, No Iterations 2
smoothSolver:  Solving for k, Initial residual = 0.0155861, Final residual = 0.000437087, No Iterations 2
ExecutionTime = 4.3 s  ClockTime = 4 s

fieldMinMax minMax write:
    min(mag(U)) = 0 in cell 522 at location (-0.0198086 0.0254 -1.47343e-21)
    max(mag(U)) = 7.98579 in cell 10824 at location (0.287428 -0.016557 1.90217e-20)

Time = 44

smoothSolver:  Solving for Ux, Initial residual = 0.00884214, Final residual = 0.000535152, No Iterations 2
smoothSolver:  Solving for Uy, Initial residual = 0.0153825, Final residual = 0.000993164, No Iterations 2
GAMG:  Solving for p, Initial residual = 0.109824, Final residual = 0.00452066, No Iterations 5
GAMG:  Solving for p, Initial residual = 0.00639948, Final residual = 0.000285493, No Iterations 13
time step continuity errors : sum local = 0.00141971, global = 4.78081e-05, cumulative = 0.134027
smoothSolver:  Solving for epsilon, Initial residual = 0.00462324, Final residual = 9.08567e-05, No Iterations 2
smoothSolver:  Solving for k, Initial residual = 0.0152826, Final residual = 0.000428575, No Iterations 2
ExecutionTime = 4.39 s  ClockTime = 4 s

fieldMinMax minMax write:
    min(mag(U)) = 0 in cell 522 at location (-0.0198086 0.0254 -1.47343e-21)
    max(mag(U)) = 7.98491 in cell 10824 at location (0.287428 -0.016557 1.90217e-20)

Time = 45

smoothSolver:  Solving for Ux, Initial residual = 0.00876083, Final residual = 0.000530323, No Iterations 2
smoothSolver:  Solving for Uy, Initial residual = 0.0153622, Final residual = 0.000989221, No Iterations 2
GAMG:  Solving for p, Initial residual = 0.108459, Final residual = 0.00351319, No Iterations 4
GAMG:  Solving for p, Initial residual = 0.00390197, Final residual = 0.000183032, No Iterations 11
time step continuity errors : sum local = 0.00095855, global = -4.48876e-05, cumulative = 0.133982
smoothSolver:  Solving for epsilon, Initial residual = 0.00456147, Final residual = 8.91226e-05, No Iterations 2
smoothSolver:  Solving for k, Initial residual = 0.0150142, Final residual = 0.000421637, No Iterations 2
ExecutionTime = 4.46 s  ClockTime = 4 s

fieldMinMax minMax write:
    min(mag(U)) = 0 in cell 522 at location (-0.0198086 0.0254 -1.47343e-21)
    max(mag(U)) = 7.981 in cell 10824 at location (0.287428 -0.016557 1.90217e-20)

Time = 46

smoothSolver:  Solving for Ux, Initial residual = 0.00858409, Final residual = 0.000521984, No Iterations 2
smoothSolver:  Solving for Uy, Initial residual = 0.0153146, Final residual = 0.000982632, No Iterations 2
GAMG:  Solving for p, Initial residual = 0.104133, Final residual = 0.0035871, No Iterations 5
GAMG:  Solving for p, Initial residual = 0.00419146, Final residual = 0.000205934, No Iterations 12
time step continuity errors : sum local = 0.00113271, global = -8.59666e-05, cumulative = 0.133896
smoothSolver:  Solving for epsilon, Initial residual = 0.00448891, Final residual = 8.78518e-05, No Iterations 2
smoothSolver:  Solving for k, Initial residual = 0.0147115, Final residual = 0.000413646, No Iterations 2
ExecutionTime = 4.54 s  ClockTime = 4 s

fieldMinMax minMax write:
    min(mag(U)) = 0 in cell 522 at location (-0.0198086 0.0254 -1.47343e-21)
    max(mag(U)) = 7.97615 in cell 10824 at location (0.287428 -0.016557 1.90217e-20)

Time = 47

smoothSolver:  Solving for Ux, Initial residual = 0.00837295, Final residual = 0.000511718, No Iterations 2
smoothSolver:  Solving for Uy, Initial residual = 0.0152, Final residual = 0.000973205, No Iterations 2
GAMG:  Solving for p, Initial residual = 0.0992889, Final residual = 0.00476859, No Iterations 3
GAMG:  Solving for p, Initial residual = 0.00474667, Final residual = 0.00023184, No Iterations 11
time step continuity errors : sum local = 0.00123029, global = 0.000113558, cumulative = 0.134009
smoothSolver:  Solving for epsilon, Initial residual = 0.00442579, Final residual = 8.64539e-05, No Iterations 2
smoothSolver:  Solving for k, Initial residual = 0.0144579, Final residual = 0.000406966, No Iterations 2
ExecutionTime = 4.61 s  ClockTime = 4 s

fieldMinMax minMax write:
    min(mag(U)) = 0 in cell 522 at location (-0.0198086 0.0254 -1.47343e-21)
    max(mag(U)) = 7.97247 in cell 10824 at location (0.287428 -0.016557 1.90217e-20)

Time = 48

smoothSolver:  Solving for Ux, Initial residual = 0.00822994, Final residual = 0.000503656, No Iterations 2
smoothSolver:  Solving for Uy, Initial residual = 0.0150657, Final residual = 0.00096532, No Iterations 2
GAMG:  Solving for p, Initial residual = 0.0957191, Final residual = 0.00465672, No Iterations 3
GAMG:  Solving for p, Initial residual = 0.00465422, Final residual = 0.000209992, No Iterations 10
time step continuity errors : sum local = 0.00111078, global = -0.000121203, cumulative = 0.133888
smoothSolver:  Solving for epsilon, Initial residual = 0.00434949, Final residual = 8.50093e-05, No Iterations 2
smoothSolver:  Solving for k, Initial residual = 0.0142069, Final residual = 0.000400881, No Iterations 2
ExecutionTime = 4.69 s  ClockTime = 4 s

fieldMinMax minMax write:
    min(mag(U)) = 0 in cell 522 at location (-0.0198086 0.0254 -1.47343e-21)
    max(mag(U)) = 7.97005 in cell 10824 at location (0.287428 -0.016557 1.90217e-20)

Time = 49

smoothSolver:  Solving for Ux, Initial residual = 0.00811907, Final residual = 0.000497326, No Iterations 2
smoothSolver:  Solving for Uy, Initial residual = 0.014929, Final residual = 0.000958794, No Iterations 2
GAMG:  Solving for p, Initial residual = 0.0936163, Final residual = 0.00278838, No Iterations 5
GAMG:  Solving for p, Initial residual = 0.0039165, Final residual = 0.000189561, No Iterations 12
time step continuity errors : sum local = 0.000948944, global = -7.2412e-05, cumulative = 0.133816
smoothSolver:  Solving for epsilon, Initial residual = 0.00425336, Final residual = 8.3343e-05, No Iterations 2
smoothSolver:  Solving for k, Initial residual = 0.0139422, Final residual = 0.000393335, No Iterations 2
ExecutionTime = 4.77 s  ClockTime = 4 s

fieldMinMax minMax write:
    min(mag(U)) = 0 in cell 522 at location (-0.0198086 0.0254 -1.47343e-21)
    max(mag(U)) = 7.96766 in cell 10824 at location (0.287428 -0.016557 1.90217e-20)

Time = 50

smoothSolver:  Solving for Ux, Initial residual = 0.00801891, Final residual = 0.000491324, No Iterations 2
smoothSolver:  Solving for Uy, Initial residual = 0.0148935, Final residual = 0.00095564, No Iterations 2
GAMG:  Solving for p, Initial residual = 0.0925377, Final residual = 0.00432013, No Iterations 3
GAMG:  Solving for p, Initial residual = 0.00437789, Final residual = 0.000208696, No Iterations 12
time step continuity errors : sum local = 0.00106811, global = -8.03209e-05, cumulative = 0.133735
smoothSolver:  Solving for epsilon, Initial residual = 0.00418562, Final residual = 8.15005e-05, No Iterations 2
smoothSolver:  Solving for k, Initial residual = 0.0137229, Final residual = 0.000388578, No Iterations 2
ExecutionTime = 4.85 s  ClockTime = 4 s

fieldMinMax minMax write:
    min(mag(U)) = 0 in cell 522 at location (-0.0198086 0.0254 -1.47343e-21)
    max(mag(U)) = 7.96448 in cell 10824 at location (0.287428 -0.016557 1.90217e-20)

Time = 51

smoothSolver:  Solving for Ux, Initial residual = 0.00790491, Final residual = 0.000485167, No Iterations 2
smoothSolver:  Solving for Uy, Initial residual = 0.0148882, Final residual = 0.000952262, No Iterations 2
GAMG:  Solving for p, Initial residual = 0.0906481, Final residual = 0.00431531, No Iterations 3
GAMG:  Solving for p, Initial residual = 0.0043228, Final residual = 0.000210769, No Iterations 9
time step continuity errors : sum local = 0.00107136, global = 0.000104975, cumulative = 0.13384
smoothSolver:  Solving for epsilon, Initial residual = 0.0041172, Final residual = 7.99326e-05, No Iterations 2
smoothSolver:  Solving for k, Initial residual = 0.0135265, Final residual = 0.000383979, No Iterations 2
ExecutionTime = 4.91 s  ClockTime = 5 s

fieldMinMax minMax write:
    min(mag(U)) = 0 in cell 522 at location (-0.0198086 0.0254 -1.47343e-21)
    max(mag(U)) = 7.96063 in cell 10824 at location (0.287428 -0.016557 1.90217e-20)

Time = 52

smoothSolver:  Solving for Ux, Initial residual = 0.00776227, Final residual = 0.00047777, No Iterations 2
smoothSolver:  Solving for Uy, Initial residual = 0.0148222, Final residual = 0.000946149, No Iterations 2
GAMG:  Solving for p, Initial residual = 0.0885667, Final residual = 0.00418835, No Iterations 3
GAMG:  Solving for p, Initial residual = 0.00418293, Final residual = 0.000196651, No Iterations 11
time step continuity errors : sum local = 0.00100013, global = 0.000106199, cumulative = 0.133946
smoothSolver:  Solving for epsilon, Initial residual = 0.00404363, Final residual = 7.86344e-05, No Iterations 2
smoothSolver:  Solving for k, Initial residual = 0.0133172, Final residual = 0.00037824, No Iterations 2
ExecutionTime = 4.99 s  ClockTime = 5 s

fieldMinMax minMax write:
    min(mag(U)) = 0 in cell 522 at location (-0.0198086 0.0254 -1.47343e-21)
    max(mag(U)) = 7.95678 in cell 10824 at location (0.287428 -0.016557 1.90217e-20)

Time = 53

smoothSolver:  Solving for Ux, Initial residual = 0.00762846, Final residual = 0.000470484, No Iterations 2
smoothSolver:  Solving for Uy, Initial residual = 0.0146989, Final residual = 0.000937925, No Iterations 2
GAMG:  Solving for p, Initial residual = 0.0866782, Final residual = 0.0039197, No Iterations 3
GAMG:  Solving for p, Initial residual = 0.00391195, Final residual = 0.000174521, No Iterations 7
time step continuity errors : sum local = 0.000888713, global = 0.000104086, cumulative = 0.134051
smoothSolver:  Solving for epsilon, Initial residual = 0.0039745, Final residual = 7.7358e-05, No Iterations 2
smoothSolver:  Solving for k, Initial residual = 0.0131044, Final residual = 0.000372453, No Iterations 2
ExecutionTime = 5.05 s  ClockTime = 5 s

fieldMinMax minMax write:
    min(mag(U)) = 0 in cell 522 at location (-0.0198086 0.0254 -1.47343e-21)
    max(mag(U)) = 7.95328 in cell 10824 at location (0.287428 -0.016557 1.90217e-20)

Time = 54

smoothSolver:  Solving for Ux, Initial residual = 0.00752386, Final residual = 0.000464462, No Iterations 2
smoothSolver:  Solving for Uy, Initial residual = 0.0145483, Final residual = 0.000929627, No Iterations 2
GAMG:  Solving for p, Initial residual = 0.0842972, Final residual = 0.00387794, No Iterations 3
GAMG:  Solving for p, Initial residual = 0.00389684, Final residual = 0.000189683, No Iterations 11
time step continuity errors : sum local = 0.000959561, global = 7.79869e-05, cumulative = 0.134129
smoothSolver:  Solving for epsilon, Initial residual = 0.00391204, Final residual = 7.61753e-05, No Iterations 2
smoothSolver:  Solving for k, Initial residual = 0.0129283, Final residual = 0.000368985, No Iterations 2
ExecutionTime = 5.12 s  ClockTime = 5 s

fieldMinMax minMax write:
    min(mag(U)) = 0 in cell 522 at location (-0.0198086 0.0254 -1.47343e-21)
    max(mag(U)) = 7.94997 in cell 10824 at location (0.287428 -0.016557 1.90217e-20)

Time = 55

smoothSolver:  Solving for Ux, Initial residual = 0.00742134, Final residual = 0.000458695, No Iterations 2
smoothSolver:  Solving for Uy, Initial residual = 0.0144546, Final residual = 0.000923863, No Iterations 2
GAMG:  Solving for p, Initial residual = 0.0834432, Final residual = 0.00381155, No Iterations 3
GAMG:  Solving for p, Initial residual = 0.00384445, Final residual = 0.000191762, No Iterations 12
time step continuity errors : sum local = 0.000962411, global = -8.92048e-05, cumulative = 0.134039
smoothSolver:  Solving for epsilon, Initial residual = 0.00383295, Final residual = 7.46893e-05, No Iterations 2
smoothSolver:  Solving for k, Initial residual = 0.0127519, Final residual = 0.00036399, No Iterations 2
ExecutionTime = 5.2 s  ClockTime = 5 s

fieldMinMax minMax write:
    min(mag(U)) = 0 in cell 522 at location (-0.0198086 0.0254 -1.47343e-21)
    max(mag(U)) = 7.94647 in cell 10824 at location (0.287428 -0.016557 1.90217e-20)

Time = 56

smoothSolver:  Solving for Ux, Initial residual = 0.00731759, Final residual = 0.000452611, No Iterations 2
smoothSolver:  Solving for Uy, Initial residual = 0.0144209, Final residual = 0.000919711, No Iterations 2
GAMG:  Solving for p, Initial residual = 0.0813263, Final residual = 0.00357778, No Iterations 3
GAMG:  Solving for p, Initial residual = 0.0035833, Final residual = 0.000160708, No Iterations 11
time step continuity errors : sum local = 0.000801376, global = 6.80003e-05, cumulative = 0.134107
smoothSolver:  Solving for epsilon, Initial residual = 0.00378442, Final residual = 7.38761e-05, No Iterations 2
smoothSolver:  Solving for k, Initial residual = 0.0125616, Final residual = 0.000358615, No Iterations 2
ExecutionTime = 5.28 s  ClockTime = 5 s

fieldMinMax minMax write:
    min(mag(U)) = 0 in cell 522 at location (-0.0198086 0.0254 -1.47343e-21)
    max(mag(U)) = 7.94274 in cell 10824 at location (0.287428 -0.016557 1.90217e-20)

Time = 57

smoothSolver:  Solving for Ux, Initial residual = 0.00720934, Final residual = 0.000446291, No Iterations 2
smoothSolver:  Solving for Uy, Initial residual = 0.0143641, Final residual = 0.000914814, No Iterations 2
GAMG:  Solving for p, Initial residual = 0.0806903, Final residual = 0.00343616, No Iterations 3
GAMG:  Solving for p, Initial residual = 0.00345294, Final residual = 0.000162553, No Iterations 8
time step continuity errors : sum local = 0.00080679, global = -7.20532e-05, cumulative = 0.134035
smoothSolver:  Solving for epsilon, Initial residual = 0.00373019, Final residual = 7.24497e-05, No Iterations 2
smoothSolver:  Solving for k, Initial residual = 0.0124119, Final residual = 0.000355096, No Iterations 2
ExecutionTime = 5.34 s  ClockTime = 5 s

fieldMinMax minMax write:
    min(mag(U)) = 0 in cell 522 at location (-0.0198086 0.0254 -1.47343e-21)
    max(mag(U)) = 7.93894 in cell 10824 at location (0.287428 -0.016557 1.90217e-20)

Time = 58

smoothSolver:  Solving for Ux, Initial residual = 0.00709808, Final residual = 0.00044005, No Iterations 2
smoothSolver:  Solving for Uy, Initial residual = 0.0142662, Final residual = 0.000908194, No Iterations 2
GAMG:  Solving for p, Initial residual = 0.0782495, Final residual = 0.00346337, No Iterations 3
GAMG:  Solving for p, Initial residual = 0.00343212, Final residual = 0.000157349, No Iterations 8
time step continuity errors : sum local = 0.000778957, global = -7.02346e-05, cumulative = 0.133965
smoothSolver:  Solving for epsilon, Initial residual = 0.00366827, Final residual = 7.16787e-05, No Iterations 2
smoothSolver:  Solving for k, Initial residual = 0.0122841, Final residual = 0.000352676, No Iterations 2
ExecutionTime = 5.4 s  ClockTime = 5 s

fieldMinMax minMax write:
    min(mag(U)) = 0 in cell 522 at location (-0.0198086 0.0254 -1.47343e-21)
    max(mag(U)) = 7.93527 in cell 10824 at location (0.287428 -0.016557 1.90217e-20)

Time = 59

smoothSolver:  Solving for Ux, Initial residual = 0.00700083, Final residual = 0.000434407, No Iterations 2
smoothSolver:  Solving for Uy, Initial residual = 0.0141315, Final residual = 0.000900393, No Iterations 2
GAMG:  Solving for p, Initial residual = 0.0779206, Final residual = 0.00352155, No Iterations 3
GAMG:  Solving for p, Initial residual = 0.00348345, Final residual = 0.000156558, No Iterations 9
time step continuity errors : sum local = 0.000775013, global = 8.97747e-05, cumulative = 0.134055
smoothSolver:  Solving for epsilon, Initial residual = 0.00360936, Final residual = 7.05829e-05, No Iterations 2
smoothSolver:  Solving for k, Initial residual = 0.0120993, Final residual = 0.000347831, No Iterations 2
ExecutionTime = 5.48 s  ClockTime = 5 s

fieldMinMax minMax write:
    min(mag(U)) = 0 in cell 522 at location (-0.0198086 0.0254 -1.47343e-21)
    max(mag(U)) = 7.93182 in cell 10824 at location (0.287428 -0.016557 1.90217e-20)

Time = 60

smoothSolver:  Solving for Ux, Initial residual = 0.00690924, Final residual = 0.000428949, No Iterations 2
smoothSolver:  Solving for Uy, Initial residual = 0.0140077, Final residual = 0.000892888, No Iterations 2
GAMG:  Solving for p, Initial residual = 0.0756402, Final residual = 0.003418, No Iterations 3
GAMG:  Solving for p, Initial residual = 0.00341739, Final residual = 0.000156216, No Iterations 11
time step continuity errors : sum local = 0.000769714, global = 7.74192e-05, cumulative = 0.134132
smoothSolver:  Solving for epsilon, Initial residual = 0.00354882, Final residual = 6.91552e-05, No Iterations 2
smoothSolver:  Solving for k, Initial residual = 0.0119521, Final residual = 0.000344343, No Iterations 2
ExecutionTime = 5.55 s  ClockTime = 5 s

fieldMinMax minMax write:
    min(mag(U)) = 0 in cell 522 at location (-0.0198086 0.0254 -1.47343e-21)
    max(mag(U)) = 7.92843 in cell 10824 at location (0.287428 -0.016557 1.90217e-20)

Time = 61

smoothSolver:  Solving for Ux, Initial residual = 0.00681689, Final residual = 0.000423511, No Iterations 2
smoothSolver:  Solving for Uy, Initial residual = 0.0139252, Final residual = 0.000887289, No Iterations 2
GAMG:  Solving for p, Initial residual = 0.0749646, Final residual = 0.00327286, No Iterations 3
GAMG:  Solving for p, Initial residual = 0.00330004, Final residual = 0.000162141, No Iterations 11
time step continuity errors : sum local = 0.000794956, global = 8.06364e-05, cumulative = 0.134213
smoothSolver:  Solving for epsilon, Initial residual = 0.00350145, Final residual = 6.82416e-05, No Iterations 2
smoothSolver:  Solving for k, Initial residual = 0.0118284, Final residual = 0.000341628, No Iterations 2
ExecutionTime = 5.62 s  ClockTime = 5 s

fieldMinMax minMax write:
    min(mag(U)) = 0 in cell 522 at location (-0.0198086 0.0254 -1.47343e-21)
    max(mag(U)) = 7.92497 in cell 10824 at location (0.287428 -0.016557 1.90217e-20)

Time = 62

smoothSolver:  Solving for Ux, Initial residual = 0.00671998, Final residual = 0.000417892, No Iterations 2
smoothSolver:  Solving for Uy, Initial residual = 0.0138515, Final residual = 0.000882074, No Iterations 2
GAMG:  Solving for p, Initial residual = 0.0733579, Final residual = 0.00318305, No Iterations 3
GAMG:  Solving for p, Initial residual = 0.00318958, Final residual = 0.000140557, No Iterations 11
time step continuity errors : sum local = 0.000686692, global = 7.594e-05, cumulative = 0.134289
smoothSolver:  Solving for epsilon, Initial residual = 0.00344664, Final residual = 6.72793e-05, No Iterations 2
smoothSolver:  Solving for k, Initial residual = 0.0116941, Final residual = 0.000338326, No Iterations 2
ExecutionTime = 5.69 s  ClockTime = 5 s

fieldMinMax minMax write:
    min(mag(U)) = 0 in cell 522 at location (-0.0198086 0.0254 -1.47343e-21)
    max(mag(U)) = 7.92143 in cell 10824 at location (0.287428 -0.016557 1.90217e-20)

Time = 63

smoothSolver:  Solving for Ux, Initial residual = 0.0066282, Final residual = 0.000412393, No Iterations 2
smoothSolver:  Solving for Uy, Initial residual = 0.013764, Final residual = 0.000876576, No Iterations 2
GAMG:  Solving for p, Initial residual = 0.0719021, Final residual = 0.00317252, No Iterations 3
GAMG:  Solving for p, Initial residual = 0.00317715, Final residual = 0.000150125, No Iterations 9
time step continuity errors : sum local = 0.000730241, global = 9.60657e-05, cumulative = 0.134385
smoothSolver:  Solving for epsilon, Initial residual = 0.00339596, Final residual = 6.63349e-05, No Iterations 2
smoothSolver:  Solving for k, Initial residual = 0.0115783, Final residual = 0.000335534, No Iterations 2
ExecutionTime = 5.76 s  ClockTime = 5 s

fieldMinMax minMax write:
    min(mag(U)) = 0 in cell 522 at location (-0.0198086 0.0254 -1.47343e-21)
    max(mag(U)) = 7.91793 in cell 10824 at location (0.287428 -0.016557 1.90217e-20)

Time = 64

smoothSolver:  Solving for Ux, Initial residual = 0.00654419, Final residual = 0.000407199, No Iterations 2
smoothSolver:  Solving for Uy, Initial residual = 0.013653, Final residual = 0.000869946, No Iterations 2
GAMG:  Solving for p, Initial residual = 0.0712679, Final residual = 0.00318159, No Iterations 3
GAMG:  Solving for p, Initial residual = 0.00318739, Final residual = 0.000155018, No Iterations 9
time step continuity errors : sum local = 0.000753218, global = 9.9399e-05, cumulative = 0.134484
smoothSolver:  Solving for epsilon, Initial residual = 0.00335381, Final residual = 6.56974e-05, No Iterations 2
smoothSolver:  Solving for k, Initial residual = 0.0114402, Final residual = 0.000332621, No Iterations 2
ExecutionTime = 5.83 s  ClockTime = 5 s

fieldMinMax minMax write:
    min(mag(U)) = 0 in cell 522 at location (-0.0198086 0.0254 -1.47343e-21)
    max(mag(U)) = 7.91456 in cell 10824 at location (0.287428 -0.016557 1.90217e-20)

Time = 65

smoothSolver:  Solving for Ux, Initial residual = 0.00646148, Final residual = 0.000402193, No Iterations 2
smoothSolver:  Solving for Uy, Initial residual = 0.0135319, Final residual = 0.000863407, No Iterations 2
GAMG:  Solving for p, Initial residual = 0.0695901, Final residual = 0.00319228, No Iterations 3
GAMG:  Solving for p, Initial residual = 0.00320694, Final residual = 0.000125029, No Iterations 11
time step continuity errors : sum local = 0.000604888, global = 7.30941e-05, cumulative = 0.134557
smoothSolver:  Solving for epsilon, Initial residual = 0.00330546, Final residual = 6.48175e-05, No Iterations 2
smoothSolver:  Solving for k, Initial residual = 0.011341, Final residual = 0.000330813, No Iterations 2
ExecutionTime = 5.91 s  ClockTime = 6 s

fieldMinMax minMax write:
    min(mag(U)) = 0 in cell 522 at location (-0.0198086 0.0254 -1.47343e-21)
    max(mag(U)) = 7.9113 in cell 10824 at location (0.287428 -0.016557 1.90217e-20)

Time = 66

smoothSolver:  Solving for Ux, Initial residual = 0.00638033, Final residual = 0.000397286, No Iterations 2
smoothSolver:  Solving for Uy, Initial residual = 0.0134284, Final residual = 0.000857112, No Iterations 2
GAMG:  Solving for p, Initial residual = 0.0687399, Final residual = 0.0031752, No Iterations 3
GAMG:  Solving for p, Initial residual = 0.00319673, Final residual = 0.000139786, No Iterations 11
time step continuity errors : sum local = 0.000673936, global = 7.80424e-05, cumulative = 0.134635
smoothSolver:  Solving for epsilon, Initial residual = 0.00325394, Final residual = 6.37839e-05, No Iterations 2
smoothSolver:  Solving for k, Initial residual = 0.0112181, Final residual = 0.000327638, No Iterations 2
ExecutionTime = 5.99 s  ClockTime = 6 s

fieldMinMax minMax write:
    min(mag(U)) = 0 in cell 522 at location (-0.0198086 0.0254 -1.47343e-21)
    max(mag(U)) = 7.90807 in cell 10824 at location (0.287428 -0.016557 1.90217e-20)

Time = 67

smoothSolver:  Solving for Ux, Initial residual = 0.00629882, Final residual = 0.000392427, No Iterations 2
smoothSolver:  Solving for Uy, Initial residual = 0.0133328, Final residual = 0.000851673, No Iterations 2
GAMG:  Solving for p, Initial residual = 0.0677817, Final residual = 0.00310754, No Iterations 3
GAMG:  Solving for p, Initial residual = 0.00314809, Final residual = 0.00013057, No Iterations 11
time step continuity errors : sum local = 0.000627952, global = 7.17515e-05, cumulative = 0.134707
smoothSolver:  Solving for epsilon, Initial residual = 0.0032111, Final residual = 6.29887e-05, No Iterations 2
smoothSolver:  Solving for k, Initial residual = 0.0111061, Final residual = 0.000325228, No Iterations 2
ExecutionTime = 6.08 s  ClockTime = 6 s

fieldMinMax minMax write:
    min(mag(U)) = 0 in cell 522 at location (-0.0198086 0.0254 -1.47343e-21)
    max(mag(U)) = 7.90481 in cell 10824 at location (0.287428 -0.016557 1.90217e-20)

Time = 68

smoothSolver:  Solving for Ux, Initial residual = 0.00621926, Final residual = 0.000387688, No Iterations 2
smoothSolver:  Solving for Uy, Initial residual = 0.0132481, Final residual = 0.00084655, No Iterations 2
GAMG:  Solving for p, Initial residual = 0.0659677, Final residual = 0.00304532, No Iterations 3
GAMG:  Solving for p, Initial residual = 0.00308639, Final residual = 0.000141745, No Iterations 10
time step continuity errors : sum local = 0.000679475, global = -9.84224e-05, cumulative = 0.134609
smoothSolver:  Solving for epsilon, Initial residual = 0.00315715, Final residual = 6.2019e-05, No Iterations 2
smoothSolver:  Solving for k, Initial residual = 0.0110118, Final residual = 0.000324185, No Iterations 2
ExecutionTime = 6.15 s  ClockTime = 6 s

fieldMinMax minMax write:
    min(mag(U)) = 0 in cell 522 at location (-0.0198086 0.0254 -1.47343e-21)
    max(mag(U)) = 7.90149 in cell 10824 at location (0.287428 -0.016557 1.90217e-20)

Time = 69

smoothSolver:  Solving for Ux, Initial residual = 0.00614249, Final residual = 0.000383108, No Iterations 2
smoothSolver:  Solving for Uy, Initial residual = 0.0131496, Final residual = 0.000841021, No Iterations 2
GAMG:  Solving for p, Initial residual = 0.0650211, Final residual = 0.0030013, No Iterations 3
GAMG:  Solving for p, Initial residual = 0.00302043, Final residual = 0.000140808, No Iterations 9
time step continuity errors : sum local = 0.000673253, global = 9.37935e-05, cumulative = 0.134703
smoothSolver:  Solving for epsilon, Initial residual = 0.00311279, Final residual = 6.11259e-05, No Iterations 2
smoothSolver:  Solving for k, Initial residual = 0.0108951, Final residual = 0.000320712, No Iterations 2
ExecutionTime = 6.22 s  ClockTime = 6 s

fieldMinMax minMax write:
    min(mag(U)) = 0 in cell 522 at location (-0.0198086 0.0254 -1.47343e-21)
    max(mag(U)) = 7.89822 in cell 10824 at location (0.287428 -0.016557 1.90217e-20)

Time = 70

smoothSolver:  Solving for Ux, Initial residual = 0.00606755, Final residual = 0.000378612, No Iterations 2
smoothSolver:  Solving for Uy, Initial residual = 0.0130418, Final residual = 0.000835375, No Iterations 2
GAMG:  Solving for p, Initial residual = 0.0645959, Final residual = 0.00301273, No Iterations 3
GAMG:  Solving for p, Initial residual = 0.00302422, Final residual = 0.000149463, No Iterations 9
time step continuity errors : sum local = 0.000714065, global = 0.000102125, cumulative = 0.134805
smoothSolver:  Solving for epsilon, Initial residual = 0.00307543, Final residual = 6.02594e-05, No Iterations 2
smoothSolver:  Solving for k, Initial residual = 0.010784, Final residual = 0.000318447, No Iterations 2
ExecutionTime = 6.31 s  ClockTime = 6 s

fieldMinMax minMax write:
    min(mag(U)) = 0 in cell 522 at location (-0.0198086 0.0254 -1.47343e-21)
    max(mag(U)) = 7.89502 in cell 10824 at location (0.287428 -0.016557 1.90217e-20)

Time = 71

smoothSolver:  Solving for Ux, Initial residual = 0.0059953, Final residual = 0.000374258, No Iterations 2
smoothSolver:  Solving for Uy, Initial residual = 0.0129405, Final residual = 0.00082986, No Iterations 2
GAMG:  Solving for p, Initial residual = 0.0632428, Final residual = 0.00298644, No Iterations 3
GAMG:  Solving for p, Initial residual = 0.00301326, Final residual = 0.000115839, No Iterations 11
time step continuity errors : sum local = 0.000552316, global = 7.33451e-05, cumulative = 0.134878
smoothSolver:  Solving for epsilon, Initial residual = 0.00303962, Final residual = 5.97104e-05, No Iterations 2
smoothSolver:  Solving for k, Initial residual = 0.010702, Final residual = 0.000316672, No Iterations 2
ExecutionTime = 6.39 s  ClockTime = 6 s

fieldMinMax minMax write:
    min(mag(U)) = 0 in cell 522 at location (-0.0198086 0.0254 -1.47343e-21)
    max(mag(U)) = 7.89182 in cell 10824 at location (0.287428 -0.016557 1.90217e-20)

Time = 72

smoothSolver:  Solving for Ux, Initial residual = 0.00592458, Final residual = 0.000370055, No Iterations 2
smoothSolver:  Solving for Uy, Initial residual = 0.0128461, Final residual = 0.000824593, No Iterations 2
GAMG:  Solving for p, Initial residual = 0.0622518, Final residual = 0.00289522, No Iterations 3
GAMG:  Solving for p, Initial residual = 0.00293305, Final residual = 0.000116646, No Iterations 11
time step continuity errors : sum local = 0.000554655, global = 7.3608e-05, cumulative = 0.134952
smoothSolver:  Solving for epsilon, Initial residual = 0.00300586, Final residual = 5.90252e-05, No Iterations 2
smoothSolver:  Solving for k, Initial residual = 0.0106024, Final residual = 0.000314161, No Iterations 2
ExecutionTime = 6.46 s  ClockTime = 6 s

fieldMinMax minMax write:
    min(mag(U)) = 0 in cell 522 at location (-0.0198086 0.0254 -1.47343e-21)
    max(mag(U)) = 7.88853 in cell 10824 at location (0.287428 -0.016557 1.90217e-20)

Time = 73

smoothSolver:  Solving for Ux, Initial residual = 0.00585586, Final residual = 0.000365951, No Iterations 2
smoothSolver:  Solving for Uy, Initial residual = 0.0127568, Final residual = 0.000819877, No Iterations 2
GAMG:  Solving for p, Initial residual = 0.0617597, Final residual = 0.00282294, No Iterations 3
GAMG:  Solving for p, Initial residual = 0.00285152, Final residual = 0.000109091, No Iterations 11
time step continuity errors : sum local = 0.0005177, global = 7.28209e-05, cumulative = 0.135024
smoothSolver:  Solving for epsilon, Initial residual = 0.0029653, Final residual = 5.82239e-05, No Iterations 2
smoothSolver:  Solving for k, Initial residual = 0.0105162, Final residual = 0.000312691, No Iterations 2
ExecutionTime = 6.55 s  ClockTime = 6 s

fieldMinMax minMax write:
    min(mag(U)) = 0 in cell 522 at location (-0.0198086 0.0254 -1.47343e-21)
    max(mag(U)) = 7.88512 in cell 10824 at location (0.287428 -0.016557 1.90217e-20)

Time = 74

smoothSolver:  Solving for Ux, Initial residual = 0.00578891, Final residual = 0.000361961, No Iterations 2
smoothSolver:  Solving for Uy, Initial residual = 0.0126748, Final residual = 0.000815154, No Iterations 2
GAMG:  Solving for p, Initial residual = 0.0603629, Final residual = 0.0027768, No Iterations 3
GAMG:  Solving for p, Initial residual = 0.00279727, Final residual = 0.00013218, No Iterations 10
time step continuity errors : sum local = 0.000626588, global = -0.000103417, cumulative = 0.134921
smoothSolver:  Solving for epsilon, Initial residual = 0.00293182, Final residual = 5.7683e-05, No Iterations 2
smoothSolver:  Solving for k, Initial residual = 0.0104311, Final residual = 0.000310921, No Iterations 2
ExecutionTime = 6.63 s  ClockTime = 6 s

fieldMinMax minMax write:
    min(mag(U)) = 0 in cell 522 at location (-0.0198086 0.0254 -1.47343e-21)
    max(mag(U)) = 7.88158 in cell 10824 at location (0.287428 -0.016557 1.90217e-20)

Time = 75

smoothSolver:  Solving for Ux, Initial residual = 0.00572369, Final residual = 0.000358136, No Iterations 2
smoothSolver:  Solving for Uy, Initial residual = 0.0125835, Final residual = 0.000810661, No Iterations 2
GAMG:  Solving for p, Initial residual = 0.0594308, Final residual = 0.00274597, No Iterations 3
GAMG:  Solving for p, Initial residual = 0.00276257, Final residual = 0.000136393, No Iterations 10
time step continuity errors : sum local = 0.00064572, global = -0.000110187, cumulative = 0.134811
smoothSolver:  Solving for epsilon, Initial residual = 0.00289398, Final residual = 5.68547e-05, No Iterations 2
smoothSolver:  Solving for k, Initial residual = 0.0103432, Final residual = 0.000309345, No Iterations 2
ExecutionTime = 6.71 s  ClockTime = 6 s

fieldMinMax minMax write:
    min(mag(U)) = 0 in cell 522 at location (-0.0198086 0.0254 -1.47343e-21)
    max(mag(U)) = 7.87792 in cell 10824 at location (0.287428 -0.016557 1.90217e-20)

Time = 76

smoothSolver:  Solving for Ux, Initial residual = 0.00566011, Final residual = 0.000354408, No Iterations 2
smoothSolver:  Solving for Uy, Initial residual = 0.0125002, Final residual = 0.000806302, No Iterations 2
GAMG:  Solving for p, Initial residual = 0.0590851, Final residual = 0.00273567, No Iterations 3
GAMG:  Solving for p, Initial residual = 0.00274474, Final residual = 0.000106218, No Iterations 11
time step continuity errors : sum local = 0.000502103, global = 8.1345e-05, cumulative = 0.134892
smoothSolver:  Solving for epsilon, Initial residual = 0.00286814, Final residual = 5.63554e-05, No Iterations 2
smoothSolver:  Solving for k, Initial residual = 0.0102753, Final residual = 0.000307945, No Iterations 2
ExecutionTime = 6.79 s  ClockTime = 6 s

fieldMinMax minMax write:
    min(mag(U)) = 0 in cell 522 at location (-0.0198086 0.0254 -1.47343e-21)
    max(mag(U)) = 7.87424 in cell 10824 at location (0.287428 -0.016557 1.90217e-20)

Time = 77

smoothSolver:  Solving for Ux, Initial residual = 0.00559834, Final residual = 0.000350753, No Iterations 2
smoothSolver:  Solving for Uy, Initial residual = 0.0124203, Final residual = 0.000802264, No Iterations 2
GAMG:  Solving for p, Initial residual = 0.0582421, Final residual = 0.00273309, No Iterations 3
GAMG:  Solving for p, Initial residual = 0.0027447, Final residual = 0.000112427, No Iterations 11
time step continuity errors : sum local = 0.000531176, global = 8.55383e-05, cumulative = 0.134978
smoothSolver:  Solving for epsilon, Initial residual = 0.00283176, Final residual = 5.56313e-05, No Iterations 2
smoothSolver:  Solving for k, Initial residual = 0.0101854, Final residual = 0.000305423, No Iterations 2
ExecutionTime = 6.87 s  ClockTime = 7 s

fieldMinMax minMax write:
    min(mag(U)) = 0 in cell 522 at location (-0.0198086 0.0254 -1.47343e-21)
    max(mag(U)) = 7.8705 in cell 10824 at location (0.287428 -0.016557 1.90217e-20)

Time = 78

smoothSolver:  Solving for Ux, Initial residual = 0.00553747, Final residual = 0.000347197, No Iterations 2
smoothSolver:  Solving for Uy, Initial residual = 0.0123517, Final residual = 0.000798648, No Iterations 2
GAMG:  Solving for p, Initial residual = 0.0571214, Final residual = 0.00268762, No Iterations 3
GAMG:  Solving for p, Initial residual = 0.002716, Final residual = 0.000115752, No Iterations 11
time step continuity errors : sum local = 0.00054576, global = 8.58201e-05, cumulative = 0.135064
smoothSolver:  Solving for epsilon, Initial residual = 0.00280157, Final residual = 5.52052e-05, No Iterations 2
smoothSolver:  Solving for k, Initial residual = 0.0100929, Final residual = 0.000303544, No Iterations 2
ExecutionTime = 6.95 s  ClockTime = 7 s

fieldMinMax minMax write:
    min(mag(U)) = 0 in cell 522 at location (-0.0198086 0.0254 -1.47343e-21)
    max(mag(U)) = 7.86656 in cell 10824 at location (0.287428 -0.016557 1.90217e-20)

Time = 79

smoothSolver:  Solving for Ux, Initial residual = 0.00547771, Final residual = 0.000343718, No Iterations 2
smoothSolver:  Solving for Uy, Initial residual = 0.0122855, Final residual = 0.000795252, No Iterations 2
GAMG:  Solving for p, Initial residual = 0.0567185, Final residual = 0.00263628, No Iterations 3
GAMG:  Solving for p, Initial residual = 0.00265566, Final residual = 0.000114031, No Iterations 11
time step continuity errors : sum local = 0.000536502, global = 8.69281e-05, cumulative = 0.13515
smoothSolver:  Solving for epsilon, Initial residual = 0.0027787, Final residual = 5.47996e-05, No Iterations 2
smoothSolver:  Solving for k, Initial residual = 0.0100371, Final residual = 0.000302536, No Iterations 2
ExecutionTime = 7.03 s  ClockTime = 7 s

fieldMinMax minMax write:
    min(mag(U)) = 0 in cell 522 at location (-0.0198086 0.0254 -1.47343e-21)
    max(mag(U)) = 7.86236 in cell 10824 at location (0.287428 -0.016557 1.90217e-20)

Time = 80

smoothSolver:  Solving for Ux, Initial residual = 0.00542023, Final residual = 0.000340355, No Iterations 2
smoothSolver:  Solving for Uy, Initial residual = 0.0122253, Final residual = 0.000792131, No Iterations 2
GAMG:  Solving for p, Initial residual = 0.0564174, Final residual = 0.00259018, No Iterations 3
GAMG:  Solving for p, Initial residual = 0.00259844, Final residual = 0.000111111, No Iterations 11
time step continuity errors : sum local = 0.000523001, global = 8.7784e-05, cumulative = 0.135238
smoothSolver:  Solving for epsilon, Initial residual = 0.00275132, Final residual = 5.41833e-05, No Iterations 2
smoothSolver:  Solving for k, Initial residual = 0.00995894, Final residual = 0.000301216, No Iterations 2
ExecutionTime = 7.11 s  ClockTime = 7 s

fieldMinMax minMax write:
    min(mag(U)) = 0 in cell 522 at location (-0.0198086 0.0254 -1.47343e-21)
    max(mag(U)) = 7.85792 in cell 10824 at location (0.287428 -0.016557 1.90217e-20)

Time = 81

smoothSolver:  Solving for Ux, Initial residual = 0.00536434, Final residual = 0.000337101, No Iterations 2
smoothSolver:  Solving for Uy, Initial residual = 0.0121688, Final residual = 0.000789104, No Iterations 2
GAMG:  Solving for p, Initial residual = 0.055206, Final residual = 0.00254246, No Iterations 3
GAMG:  Solving for p, Initial residual = 0.00254986, Final residual = 0.00010689, No Iterations 11
time step continuity errors : sum local = 0.000502697, global = 8.72469e-05, cumulative = 0.135326
smoothSolver:  Solving for epsilon, Initial residual = 0.00272597, Final residual = 5.36687e-05, No Iterations 2
smoothSolver:  Solving for k, Initial residual = 0.00989871, Final residual = 0.00029934, No Iterations 2
ExecutionTime = 7.19 s  ClockTime = 7 s

fieldMinMax minMax write:
[...]
    min(mag(U)) = 0 in cell 522 at location (-0.0198086 0.0254 -1.47343e-21)
    max(mag(U)) = 6.62653 in cell 89 at location (-0.000395709 0.00162971 -5.03334e-21)

Time = 442

smoothSolver:  Solving for Ux, Initial residual = 0.000143165, Final residual = 1.01764e-05, No Iterations 2
smoothSolver:  Solving for Uy, Initial residual = 0.00140291, Final residual = 0.000106508, No Iterations 2
GAMG:  Solving for p, Initial residual = 0.0024568, Final residual = 0.000117788, No Iterations 8
GAMG:  Solving for p, Initial residual = 0.000288969, Final residual = 1.31329e-05, No Iterations 17
time step continuity errors : sum local = 4.05689e-05, global = 3.2745e-07, cumulative = 0.135734
smoothSolver:  Solving for epsilon, Initial residual = 0.000128572, Final residual = 3.79422e-06, No Iterations 2
smoothSolver:  Solving for k, Initial residual = 0.000681699, Final residual = 3.28364e-05, No Iterations 2
ExecutionTime = 38.57 s  ClockTime = 38 s

fieldMinMax minMax write:
    min(mag(U)) = 0 in cell 522 at location (-0.0198086 0.0254 -1.47343e-21)
    max(mag(U)) = 6.62653 in cell 89 at location (-0.000395709 0.00162971 -5.03334e-21)

Time = 443

smoothSolver:  Solving for Ux, Initial residual = 0.000141295, Final residual = 1.00583e-05, No Iterations 2
smoothSolver:  Solving for Uy, Initial residual = 0.00138311, Final residual = 0.000105059, No Iterations 2
GAMG:  Solving for p, Initial residual = 0.00239977, Final residual = 0.000116316, No Iterations 8
GAMG:  Solving for p, Initial residual = 0.000286042, Final residual = 1.3293e-05, No Iterations 17
time step continuity errors : sum local = 4.10497e-05, global = 3.40756e-07, cumulative = 0.135734
smoothSolver:  Solving for epsilon, Initial residual = 0.000126168, Final residual = 3.71009e-06, No Iterations 2
smoothSolver:  Solving for k, Initial residual = 0.000668251, Final residual = 3.22449e-05, No Iterations 2
ExecutionTime = 38.66 s  ClockTime = 38 s

fieldMinMax minMax write:
    min(mag(U)) = 0 in cell 522 at location (-0.0198086 0.0254 -1.47343e-21)
    max(mag(U)) = 6.62653 in cell 89 at location (-0.000395709 0.00162971 -5.03334e-21)

Time = 444

smoothSolver:  Solving for Ux, Initial residual = 0.000139477, Final residual = 9.93792e-06, No Iterations 2
smoothSolver:  Solving for Uy, Initial residual = 0.00136311, Final residual = 0.000103548, No Iterations 2
GAMG:  Solving for p, Initial residual = 0.00236459, Final residual = 0.000114982, No Iterations 8
GAMG:  Solving for p, Initial residual = 0.000283224, Final residual = 1.34352e-05, No Iterations 17
time step continuity errors : sum local = 4.14729e-05, global = 3.52777e-07, cumulative = 0.135735
smoothSolver:  Solving for epsilon, Initial residual = 0.000123858, Final residual = 3.63815e-06, No Iterations 2
smoothSolver:  Solving for k, Initial residual = 0.000655096, Final residual = 3.16096e-05, No Iterations 2
ExecutionTime = 38.76 s  ClockTime = 38 s

fieldMinMax minMax write:
    min(mag(U)) = 0 in cell 522 at location (-0.0198086 0.0254 -1.47343e-21)
    max(mag(U)) = 6.62653 in cell 89 at location (-0.000395709 0.00162971 -5.03334e-21)

Time = 445

smoothSolver:  Solving for Ux, Initial residual = 0.000137703, Final residual = 9.8159e-06, No Iterations 2
smoothSolver:  Solving for Uy, Initial residual = 0.00134304, Final residual = 0.000101974, No Iterations 2
GAMG:  Solving for p, Initial residual = 0.00231796, Final residual = 0.000115354, No Iterations 8
GAMG:  Solving for p, Initial residual = 0.000281386, Final residual = 1.35904e-05, No Iterations 17
time step continuity errors : sum local = 4.19376e-05, global = 3.66759e-07, cumulative = 0.135735
smoothSolver:  Solving for epsilon, Initial residual = 0.000121466, Final residual = 3.56939e-06, No Iterations 2
smoothSolver:  Solving for k, Initial residual = 0.000642027, Final residual = 3.0914e-05, No Iterations 2
ExecutionTime = 38.85 s  ClockTime = 38 s

fieldMinMax minMax write:
    min(mag(U)) = 0 in cell 522 at location (-0.0198086 0.0254 -1.47343e-21)
    max(mag(U)) = 6.62653 in cell 89 at location (-0.000395709 0.00162971 -5.03334e-21)

Time = 446

smoothSolver:  Solving for Ux, Initial residual = 0.000135912, Final residual = 9.69694e-06, No Iterations 2
smoothSolver:  Solving for Uy, Initial residual = 0.00132273, Final residual = 0.000100393, No Iterations 2
GAMG:  Solving for p, Initial residual = 0.00229022, Final residual = 0.000114127, No Iterations 8
GAMG:  Solving for p, Initial residual = 0.00027825, Final residual = 1.37313e-05, No Iterations 17
time step continuity errors : sum local = 4.23563e-05, global = 3.80352e-07, cumulative = 0.135735
smoothSolver:  Solving for epsilon, Initial residual = 0.000119141, Final residual = 3.50442e-06, No Iterations 2
smoothSolver:  Solving for k, Initial residual = 0.00062894, Final residual = 3.02554e-05, No Iterations 2
ExecutionTime = 38.94 s  ClockTime = 39 s

fieldMinMax minMax write:
    min(mag(U)) = 0 in cell 522 at location (-0.0198086 0.0254 -1.47343e-21)
    max(mag(U)) = 6.62653 in cell 89 at location (-0.000395709 0.00162971 -5.03334e-21)

Time = 447

smoothSolver:  Solving for Ux, Initial residual = 0.00013411, Final residual = 9.58405e-06, No Iterations 2
smoothSolver:  Solving for Uy, Initial residual = 0.00130252, Final residual = 9.87662e-05, No Iterations 2
GAMG:  Solving for p, Initial residual = 0.00225394, Final residual = 0.00011263, No Iterations 8
GAMG:  Solving for p, Initial residual = 0.000274594, Final residual = 1.24797e-05, No Iterations 18
time step continuity errors : sum local = 3.84825e-05, global = 3.60397e-07, cumulative = 0.135736
smoothSolver:  Solving for epsilon, Initial residual = 0.000116903, Final residual = 3.4357e-06, No Iterations 2
smoothSolver:  Solving for k, Initial residual = 0.000616623, Final residual = 2.97169e-05, No Iterations 2
ExecutionTime = 39.05 s  ClockTime = 39 s

fieldMinMax minMax write:
    min(mag(U)) = 0 in cell 522 at location (-0.0198086 0.0254 -1.47343e-21)
    max(mag(U)) = 6.62653 in cell 89 at location (-0.000395709 0.00162971 -5.03334e-21)

Time = 448

smoothSolver:  Solving for Ux, Initial residual = 0.000132339, Final residual = 9.47012e-06, No Iterations 2
smoothSolver:  Solving for Uy, Initial residual = 0.001282, Final residual = 9.70789e-05, No Iterations 2
GAMG:  Solving for p, Initial residual = 0.00221921, Final residual = 0.000110822, No Iterations 8
GAMG:  Solving for p, Initial residual = 0.000270788, Final residual = 1.25016e-05, No Iterations 18
time step continuity errors : sum local = 3.85357e-05, global = 3.69639e-07, cumulative = 0.135736
smoothSolver:  Solving for epsilon, Initial residual = 0.000114528, Final residual = 3.37197e-06, No Iterations 2
smoothSolver:  Solving for k, Initial residual = 0.000604144, Final residual = 2.91261e-05, No Iterations 2
ExecutionTime = 39.14 s  ClockTime = 39 s

fieldMinMax minMax write:
    min(mag(U)) = 0 in cell 522 at location (-0.0198086 0.0254 -1.47343e-21)
    max(mag(U)) = 6.62653 in cell 89 at location (-0.000395709 0.00162971 -5.03334e-21)

Time = 449

smoothSolver:  Solving for Ux, Initial residual = 0.00013064, Final residual = 9.35479e-06, No Iterations 2
smoothSolver:  Solving for Uy, Initial residual = 0.00126104, Final residual = 9.53755e-05, No Iterations 2
GAMG:  Solving for p, Initial residual = 0.00217661, Final residual = 8.84466e-05, No Iterations 9
GAMG:  Solving for p, Initial residual = 0.000247907, Final residual = 1.13049e-05, No Iterations 18
time step continuity errors : sum local = 3.48365e-05, global = 3.50644e-07, cumulative = 0.135736
smoothSolver:  Solving for epsilon, Initial residual = 0.000112355, Final residual = 3.30296e-06, No Iterations 2
smoothSolver:  Solving for k, Initial residual = 0.000591759, Final residual = 2.85075e-05, No Iterations 2
ExecutionTime = 39.24 s  ClockTime = 39 s

fieldMinMax minMax write:
    min(mag(U)) = 0 in cell 522 at location (-0.0198086 0.0254 -1.47343e-21)
    max(mag(U)) = 6.62653 in cell 89 at location (-0.000395709 0.00162971 -5.03334e-21)

Time = 450

smoothSolver:  Solving for Ux, Initial residual = 0.000128926, Final residual = 9.24126e-06, No Iterations 2
smoothSolver:  Solving for Uy, Initial residual = 0.00123958, Final residual = 9.36513e-05, No Iterations 2
GAMG:  Solving for p, Initial residual = 0.00214868, Final residual = 0.000106924, No Iterations 8
GAMG:  Solving for p, Initial residual = 0.000262696, Final residual = 1.24708e-05, No Iterations 18
time step continuity errors : sum local = 3.84151e-05, global = 3.85356e-07, cumulative = 0.135737
smoothSolver:  Solving for epsilon, Initial residual = 0.000110047, Final residual = 3.23888e-06, No Iterations 2
smoothSolver:  Solving for k, Initial residual = 0.000579504, Final residual = 2.79327e-05, No Iterations 2
ExecutionTime = 39.34 s  ClockTime = 39 s

fieldMinMax minMax write:
    min(mag(U)) = 0 in cell 522 at location (-0.0198086 0.0254 -1.47343e-21)
    max(mag(U)) = 6.62653 in cell 89 at location (-0.000395709 0.00162971 -5.03334e-21)

Time = 451

smoothSolver:  Solving for Ux, Initial residual = 0.000127201, Final residual = 9.13348e-06, No Iterations 2
smoothSolver:  Solving for Uy, Initial residual = 0.00121798, Final residual = 9.18851e-05, No Iterations 2
GAMG:  Solving for p, Initial residual = 0.00211819, Final residual = 0.000104979, No Iterations 8
GAMG:  Solving for p, Initial residual = 0.000258511, Final residual = 1.24835e-05, No Iterations 18
time step continuity errors : sum local = 3.8443e-05, global = 3.94093e-07, cumulative = 0.135737
smoothSolver:  Solving for epsilon, Initial residual = 0.000107882, Final residual = 3.16497e-06, No Iterations 2
smoothSolver:  Solving for k, Initial residual = 0.000567642, Final residual = 2.74859e-05, No Iterations 2
ExecutionTime = 39.44 s  ClockTime = 39 s

fieldMinMax minMax write:
    min(mag(U)) = 0 in cell 522 at location (-0.0198086 0.0254 -1.47343e-21)
    max(mag(U)) = 6.62653 in cell 89 at location (-0.000395709 0.00162971 -5.03334e-21)

Time = 452

smoothSolver:  Solving for Ux, Initial residual = 0.000125508, Final residual = 9.02631e-06, No Iterations 2
smoothSolver:  Solving for Uy, Initial residual = 0.00119612, Final residual = 9.00729e-05, No Iterations 2
GAMG:  Solving for p, Initial residual = 0.00208488, Final residual = 0.000103271, No Iterations 8
GAMG:  Solving for p, Initial residual = 0.000254631, Final residual = 1.24758e-05, No Iterations 18
time step continuity errors : sum local = 3.84064e-05, global = 4.01313e-07, cumulative = 0.135738
smoothSolver:  Solving for epsilon, Initial residual = 0.000105621, Final residual = 3.08654e-06, No Iterations 2
smoothSolver:  Solving for k, Initial residual = 0.000555961, Final residual = 2.68696e-05, No Iterations 2
ExecutionTime = 39.53 s  ClockTime = 39 s

fieldMinMax minMax write:
    min(mag(U)) = 0 in cell 522 at location (-0.0198086 0.0254 -1.47343e-21)
    max(mag(U)) = 6.62653 in cell 89 at location (-0.000395709 0.00162971 -5.03334e-21)

Time = 453

smoothSolver:  Solving for Ux, Initial residual = 0.000123889, Final residual = 8.9173e-06, No Iterations 2
smoothSolver:  Solving for Uy, Initial residual = 0.00117368, Final residual = 8.82609e-05, No Iterations 2
GAMG:  Solving for p, Initial residual = 0.00203692, Final residual = 0.000100887, No Iterations 8
GAMG:  Solving for p, Initial residual = 0.00024991, Final residual = 1.24215e-05, No Iterations 18
time step continuity errors : sum local = 3.82287e-05, global = 4.08334e-07, cumulative = 0.135738
smoothSolver:  Solving for epsilon, Initial residual = 0.000103389, Final residual = 3.01888e-06, No Iterations 2
smoothSolver:  Solving for k, Initial residual = 0.000544472, Final residual = 2.64381e-05, No Iterations 2
ExecutionTime = 39.64 s  ClockTime = 39 s

fieldMinMax minMax write:
    min(mag(U)) = 0 in cell 522 at location (-0.0198086 0.0254 -1.47343e-21)
    max(mag(U)) = 6.62653 in cell 89 at location (-0.000395709 0.00162971 -5.03334e-21)

Time = 454

smoothSolver:  Solving for Ux, Initial residual = 0.00012228, Final residual = 8.80923e-06, No Iterations 2
smoothSolver:  Solving for Uy, Initial residual = 0.00115095, Final residual = 8.64198e-05, No Iterations 2
GAMG:  Solving for p, Initial residual = 0.00201377, Final residual = 9.81995e-05, No Iterations 8
GAMG:  Solving for p, Initial residual = 0.00024448, Final residual = 1.12067e-05, No Iterations 19
time step continuity errors : sum local = 3.44798e-05, global = 3.82695e-07, cumulative = 0.135738
smoothSolver:  Solving for epsilon, Initial residual = 0.000101331, Final residual = 2.95318e-06, No Iterations 2
smoothSolver:  Solving for k, Initial residual = 0.000532767, Final residual = 2.57706e-05, No Iterations 2
ExecutionTime = 39.74 s  ClockTime = 39 s

fieldMinMax minMax write:
    min(mag(U)) = 0 in cell 522 at location (-0.0198086 0.0254 -1.47343e-21)
    max(mag(U)) = 6.62653 in cell 89 at location (-0.000395709 0.00162971 -5.03334e-21)

Time = 455

smoothSolver:  Solving for Ux, Initial residual = 0.000120644, Final residual = 8.70549e-06, No Iterations 2
smoothSolver:  Solving for Uy, Initial residual = 0.00112813, Final residual = 8.45405e-05, No Iterations 2
GAMG:  Solving for p, Initial residual = 0.00197982, Final residual = 9.59627e-05, No Iterations 8
GAMG:  Solving for p, Initial residual = 0.000239397, Final residual = 1.1051e-05, No Iterations 19
time step continuity errors : sum local = 3.39917e-05, global = 3.81551e-07, cumulative = 0.135739
smoothSolver:  Solving for epsilon, Initial residual = 9.92093e-05, Final residual = 2.87776e-06, No Iterations 2
smoothSolver:  Solving for k, Initial residual = 0.000521532, Final residual = 2.52278e-05, No Iterations 2
ExecutionTime = 39.83 s  ClockTime = 39 s

fieldMinMax minMax write:
    min(mag(U)) = 0 in cell 522 at location (-0.0198086 0.0254 -1.47343e-21)
    max(mag(U)) = 6.62653 in cell 89 at location (-0.000395709 0.00162971 -5.03334e-21)

Time = 456

smoothSolver:  Solving for Ux, Initial residual = 0.000119018, Final residual = 8.60602e-06, No Iterations 2
smoothSolver:  Solving for Uy, Initial residual = 0.00110499, Final residual = 8.26404e-05, No Iterations 2
GAMG:  Solving for p, Initial residual = 0.00195438, Final residual = 9.22166e-05, No Iterations 8
GAMG:  Solving for p, Initial residual = 0.000233346, Final residual = 1.09063e-05, No Iterations 19
time step continuity errors : sum local = 3.35362e-05, global = 3.819e-07, cumulative = 0.135739
smoothSolver:  Solving for epsilon, Initial residual = 9.7074e-05, Final residual = 2.82708e-06, No Iterations 2
smoothSolver:  Solving for k, Initial residual = 0.00051038, Final residual = 2.46982e-05, No Iterations 2
ExecutionTime = 39.93 s  ClockTime = 40 s

fieldMinMax minMax write:
    min(mag(U)) = 0 in cell 522 at location (-0.0198086 0.0254 -1.47343e-21)
    max(mag(U)) = 6.62653 in cell 89 at location (-0.000395709 0.00162971 -5.03334e-21)

Time = 457

smoothSolver:  Solving for Ux, Initial residual = 0.000117423, Final residual = 8.50599e-06, No Iterations 2
smoothSolver:  Solving for Uy, Initial residual = 0.00108146, Final residual = 8.07491e-05, No Iterations 2
GAMG:  Solving for p, Initial residual = 0.00191658, Final residual = 9.00011e-05, No Iterations 8
GAMG:  Solving for p, Initial residual = 0.00022809, Final residual = 1.07657e-05, No Iterations 19
time step continuity errors : sum local = 3.30953e-05, global = 3.80624e-07, cumulative = 0.13574
smoothSolver:  Solving for epsilon, Initial residual = 9.5026e-05, Final residual = 2.75449e-06, No Iterations 2
smoothSolver:  Solving for k, Initial residual = 0.000499285, Final residual = 2.41324e-05, No Iterations 2
ExecutionTime = 40.03 s  ClockTime = 40 s

fieldMinMax minMax write:
    min(mag(U)) = 0 in cell 522 at location (-0.0198086 0.0254 -1.47343e-21)
    max(mag(U)) = 6.62653 in cell 89 at location (-0.000395709 0.00162971 -5.03334e-21)

Time = 458

smoothSolver:  Solving for Ux, Initial residual = 0.000115907, Final residual = 8.40489e-06, No Iterations 2
smoothSolver:  Solving for Uy, Initial residual = 0.00105776, Final residual = 7.88403e-05, No Iterations 2
GAMG:  Solving for p, Initial residual = 0.0018881, Final residual = 8.8028e-05, No Iterations 8
GAMG:  Solving for p, Initial residual = 0.000222906, Final residual = 1.06131e-05, No Iterations 19
time step continuity errors : sum local = 3.2617e-05, global = 3.78798e-07, cumulative = 0.13574
smoothSolver:  Solving for epsilon, Initial residual = 9.29762e-05, Final residual = 2.68724e-06, No Iterations 2
smoothSolver:  Solving for k, Initial residual = 0.000488584, Final residual = 2.37092e-05, No Iterations 2
ExecutionTime = 40.13 s  ClockTime = 40 s

fieldMinMax minMax write:
    min(mag(U)) = 0 in cell 522 at location (-0.0198086 0.0254 -1.47343e-21)
    max(mag(U)) = 6.62653 in cell 89 at location (-0.000395709 0.00162971 -5.03334e-21)

Time = 459

smoothSolver:  Solving for Ux, Initial residual = 0.000114381, Final residual = 8.30626e-06, No Iterations 2
smoothSolver:  Solving for Uy, Initial residual = 0.00103415, Final residual = 7.68995e-05, No Iterations 2
GAMG:  Solving for p, Initial residual = 0.00185234, Final residual = 8.59891e-05, No Iterations 8
GAMG:  Solving for p, Initial residual = 0.000217753, Final residual = 1.04497e-05, No Iterations 19
time step continuity errors : sum local = 3.21075e-05, global = 3.77815e-07, cumulative = 0.13574
smoothSolver:  Solving for epsilon, Initial residual = 9.09454e-05, Final residual = 2.62042e-06, No Iterations 2
smoothSolver:  Solving for k, Initial residual = 0.000477875, Final residual = 2.31779e-05, No Iterations 2
ExecutionTime = 40.23 s  ClockTime = 40 s

fieldMinMax minMax write:
    min(mag(U)) = 0 in cell 522 at location (-0.0198086 0.0254 -1.47343e-21)
    max(mag(U)) = 6.62653 in cell 89 at location (-0.000395709 0.00162971 -5.03334e-21)

Time = 460

smoothSolver:  Solving for Ux, Initial residual = 0.000112864, Final residual = 8.21434e-06, No Iterations 2
smoothSolver:  Solving for Uy, Initial residual = 0.00101024, Final residual = 7.4965e-05, No Iterations 2
GAMG:  Solving for p, Initial residual = 0.00182466, Final residual = 8.36064e-05, No Iterations 8
GAMG:  Solving for p, Initial residual = 0.000212203, Final residual = 1.02596e-05, No Iterations 19
time step continuity errors : sum local = 3.15152e-05, global = 3.75136e-07, cumulative = 0.135741
smoothSolver:  Solving for epsilon, Initial residual = 8.89624e-05, Final residual = 2.55841e-06, No Iterations 2
smoothSolver:  Solving for k, Initial residual = 0.000467219, Final residual = 2.26531e-05, No Iterations 2
ExecutionTime = 40.33 s  ClockTime = 40 s

fieldMinMax minMax write:
    min(mag(U)) = 0 in cell 522 at location (-0.0198086 0.0254 -1.47343e-21)
    max(mag(U)) = 6.62653 in cell 89 at location (-0.000395709 0.00162971 -5.03334e-21)

Time = 461

smoothSolver:  Solving for Ux, Initial residual = 0.000111363, Final residual = 8.12154e-06, No Iterations 2
smoothSolver:  Solving for Uy, Initial residual = 0.000986001, Final residual = 7.30364e-05, No Iterations 2
GAMG:  Solving for p, Initial residual = 0.00178514, Final residual = 8.00411e-05, No Iterations 8
GAMG:  Solving for p, Initial residual = 0.000205485, Final residual = 9.98887e-06, No Iterations 19
time step continuity errors : sum local = 3.06776e-05, global = 3.74052e-07, cumulative = 0.135741
smoothSolver:  Solving for epsilon, Initial residual = 8.7004e-05, Final residual = 2.49911e-06, No Iterations 2
smoothSolver:  Solving for k, Initial residual = 0.000456749, Final residual = 2.21852e-05, No Iterations 2
ExecutionTime = 40.43 s  ClockTime = 40 s


SIMPLE solution converged in 461 iterations

streamLine streamlines write:
    seeded 10 particles
    Tracks:10
    Total samples:10770
fieldMinMax minMax write:
    min(mag(U)) = 0 in cell 522 at location (-0.0198086 0.0254 -1.47343e-21)
    max(mag(U)) = 6.62653 in cell 89 at location (-0.000395709 0.00162971 -5.03334e-21)

End

