/*---------------------------------------------------------------------------*\
| =========                 |                                                 |
| \\      /  F ield         | OpenFOAM: The Open Source CFD Toolbox           |
|  \\    /   O peration     | Version:  2312                                  |
|   \\  /    A nd           | Website:  www.openfoam.com                      |
|    \\/     M anipulation  |                                                 |
\*---------------------------------------------------------------------------*/
Build  : _1d8f0d55f7-20231221 OPENFOAM=2312 version=v2312
Arch   : "LSB;label=32;scalar=64"
Exec   : simpleFoam
Date   : Mar 04 2024
Time   : 16:09:31
Host   : popeye03
PID    : 1669564
I/O    : uncollated
Case   : /home/user03/OpenFOAM/user03-v2312/run/pitzDaily
nProcs : 1
trapFpe: Floating point exception trapping enabled (FOAM_SIGFPE).
fileModificationChecking : Monitoring run-time modified files using timeStampMaster (fileModificationSkew 5, maxFileModificationPolls 20)
allowSystemOperations : Allowing user-supplied system call operations

// * * * * * * * * * * * * * * * * * * * * * * * * * * * * * * * * * * * * * //
Create time

Create mesh for time = 0


SIMPLE: convergence criteria
    field p	 tolerance 0.01
    field U	 tolerance 0.001
    field "(k|epsilon|omega|f|v2)"	 tolerance 0.001

Reading field p

Reading field U

Reading/calculating face flux field phi

Selecting incompressible transport model Newtonian
Selecting turbulence model type RAS
Selecting RAS turbulence model kEpsilon
RAS
{
    RASModel        kEpsilon;
    turbulence      on;
    printCoeffs     on;
    Cmu             0.09;
    C1              1.44;
    C2              1.92;
    C3              0;
    sigmak          1;
    sigmaEps        1.3;
}

No MRF models present

No finite volume options present

Starting time loop

streamLine streamlines:
    Employing velocity field U
    automatic track length specified through number of sub cycles : 5

Time = 1

smoothSolver:  Solving for Ux, Initial residual = 1, Final residual = 0.0426357, No Iterations 1
smoothSolver:  Solving for Uy, Initial residual = 1, Final residual = 0.0859637, No Iterations 1
GAMG:  Solving for p, Initial residual = 1, Final residual = 0.0427342, No Iterations 20
time step continuity errors : sum local = 0.591125, global = -0.111186, cumulative = -0.111186
smoothSolver:  Solving for epsilon, Initial residual = 0.122148, Final residual = 0.00394595, No Iterations 2
smoothSolver:  Solving for k, Initial residual = 1, Final residual = 0.0296913, No Iterations 2
ExecutionTime = 0.41 s  ClockTime = 0 s

fieldMinMax minMax write:
    min(mag(U)) = 0 in cell 522 at location (-0.0198086 0.0254 -1.47343e-21)
    max(mag(U)) = 6.5 in cell 0 at location (-0.0206 0.00015942 1.4001e-21)

Time = 2

smoothSolver:  Solving for Ux, Initial residual = 0.784966, Final residual = 0.0458494, No Iterations 2
smoothSolver:  Solving for Uy, Initial residual = 0.472592, Final residual = 0.0322421, No Iterations 2
GAMG:  Solving for p, Initial residual = 0.122075, Final residual = 0.00535768, No Iterations 11
time step continuity errors : sum local = 1.60626, global = -0.204275, cumulative = -0.315461
smoothSolver:  Solving for epsilon, Initial residual = 0.0541809, Final residual = 0.00103968, No Iterations 2
smoothSolver:  Solving for k, Initial residual = 0.593321, Final residual = 0.0139657, No Iterations 2
ExecutionTime = 0.49 s  ClockTime = 0 s

fieldMinMax minMax write:
    min(mag(U)) = 0 in cell 522 at location (-0.0198086 0.0254 -1.47343e-21)
    max(mag(U)) = 11.3556 in cell 17 at location (-0.000395709 0.00015942 -2.48511e-21)

Time = 3

smoothSolver:  Solving for Ux, Initial residual = 0.753862, Final residual = 0.043873, No Iterations 2
smoothSolver:  Solving for Uy, Initial residual = 0.272202, Final residual = 0.0187668, No Iterations 2
GAMG:  Solving for p, Initial residual = 0.08791, Final residual = 0.00412454, No Iterations 16
time step continuity errors : sum local = 1.34434, global = 0.116489, cumulative = -0.198972
smoothSolver:  Solving for epsilon, Initial residual = 0.0506382, Final residual = 0.00072488, No Iterations 2
smoothSolver:  Solving for k, Initial residual = 0.297211, Final residual = 0.00823668, No Iterations 2
ExecutionTime = 0.58 s  ClockTime = 0 s

fieldMinMax minMax write:
    min(mag(U)) = 0 in cell 522 at location (-0.0198086 0.0254 -1.47343e-21)
    max(mag(U)) = 15.4955 in cell 17 at location (-0.000395709 0.00015942 -2.48511e-21)

Time = 4

smoothSolver:  Solving for Ux, Initial residual = 0.284584, Final residual = 0.0160484, No Iterations 2
smoothSolver:  Solving for Uy, Initial residual = 0.119918, Final residual = 0.00759213, No Iterations 2
GAMG:  Solving for p, Initial residual = 0.309419, Final residual = 0.0130481, No Iterations 19
time step continuity errors : sum local = 1.23274, global = 0.0365525, cumulative = -0.162419
smoothSolver:  Solving for epsilon, Initial residual = 0.0319975, Final residual = 0.00310726, No Iterations 1
smoothSolver:  Solving for k, Initial residual = 0.153544, Final residual = 0.00507311, No Iterations 2
ExecutionTime = 0.66 s  ClockTime = 0 s

fieldMinMax minMax write:
    min(mag(U)) = 0 in cell 522 at location (-0.0198086 0.0254 -1.47343e-21)
    max(mag(U)) = 14.0366 in cell 5400 at location (0.00026448 0.00015994 -4.71801e-21)

Time = 5

smoothSolver:  Solving for Ux, Initial residual = 0.527103, Final residual = 0.0305504, No Iterations 2
smoothSolver:  Solving for Uy, Initial residual = 0.146941, Final residual = 0.00943603, No Iterations 2
GAMG:  Solving for p, Initial residual = 0.218043, Final residual = 0.0087566, No Iterations 6
time step continuity errors : sum local = 1.73874, global = -0.21757, cumulative = -0.379989
smoothSolver:  Solving for epsilon, Initial residual = 0.0188209, Final residual = 0.000368653, No Iterations 2
smoothSolver:  Solving for k, Initial residual = 0.0927412, Final residual = 0.00260234, No Iterations 2
ExecutionTime = 0.72 s  ClockTime = 0 s

fieldMinMax minMax write:
    min(mag(U)) = 0 in cell 522 at location (-0.0198086 0.0254 -1.47343e-21)
    max(mag(U)) = 8.45549 in cell 30 at location (-0.00478564 0.000489703 1.18069e-20)

Time = 6

smoothSolver:  Solving for Ux, Initial residual = 0.634251, Final residual = 0.0362102, No Iterations 2
smoothSolver:  Solving for Uy, Initial residual = 0.20161, Final residual = 0.0134008, No Iterations 2
GAMG:  Solving for p, Initial residual = 0.13364, Final residual = 0.00653203, No Iterations 20
time step continuity errors : sum local = 1.31131, global = -0.025155, cumulative = -0.405144
smoothSolver:  Solving for epsilon, Initial residual = 0.0265126, Final residual = 0.00257767, No Iterations 1
smoothSolver:  Solving for k, Initial residual = 0.0779042, Final residual = 0.00183192, No Iterations 2
ExecutionTime = 0.82 s  ClockTime = 1 s

fieldMinMax minMax write:
    min(mag(U)) = 0 in cell 522 at location (-0.0198086 0.0254 -1.47343e-21)
    max(mag(U)) = 8.7258 in cell 4501 at location (0.000794713 -0.00199823 -4.42711e-21)

Time = 7

smoothSolver:  Solving for Ux, Initial residual = 0.135593, Final residual = 0.00704417, No Iterations 2
smoothSolver:  Solving for Uy, Initial residual = 0.212697, Final residual = 0.0131528, No Iterations 2
GAMG:  Solving for p, Initial residual = 0.656653, Final residual = 0.0308005, No Iterations 16
time step continuity errors : sum local = 1.38512, global = -0.0668201, cumulative = -0.471964
smoothSolver:  Solving for epsilon, Initial residual = 0.0284374, Final residual = 0.000546343, No Iterations 2
smoothSolver:  Solving for k, Initial residual = 0.0587054, Final residual = 0.00158522, No Iterations 2
ExecutionTime = 0.9 s  ClockTime = 1 s

fieldMinMax minMax write:
    min(mag(U)) = 0 in cell 522 at location (-0.0198086 0.0254 -1.47343e-21)
    max(mag(U)) = 7.8966 in cell 4501 at location (0.000794713 -0.00199823 -4.42711e-21)

Time = 8

smoothSolver:  Solving for Ux, Initial residual = 0.476845, Final residual = 0.0276376, No Iterations 2
smoothSolver:  Solving for Uy, Initial residual = 0.148808, Final residual = 0.00912453, No Iterations 2
GAMG:  Solving for p, Initial residual = 0.248842, Final residual = 0.011494, No Iterations 6
time step continuity errors : sum local = 1.61613, global = -0.199451, cumulative = -0.671415
smoothSolver:  Solving for epsilon, Initial residual = 0.0210386, Final residual = 0.000398042, No Iterations 2
smoothSolver:  Solving for k, Initial residual = 0.0500333, Final residual = 0.00133224, No Iterations 2
ExecutionTime = 0.97 s  ClockTime = 1 s

fieldMinMax minMax write:
    min(mag(U)) = 0 in cell 522 at location (-0.0198086 0.0254 -1.47343e-21)
    max(mag(U)) = 8.81614 in cell 17 at location (-0.000395709 0.00015942 -2.48511e-21)

Time = 9

smoothSolver:  Solving for Ux, Initial residual = 0.39914, Final residual = 0.0229287, No Iterations 2
smoothSolver:  Solving for Uy, Initial residual = 0.132459, Final residual = 0.0086204, No Iterations 2
GAMG:  Solving for p, Initial residual = 0.147724, Final residual = 0.00667049, No Iterations 15
time step continuity errors : sum local = 0.766716, global = 0.0341706, cumulative = -0.637245
smoothSolver:  Solving for epsilon, Initial residual = 0.017589, Final residual = 0.000307759, No Iterations 2
smoothSolver:  Solving for k, Initial residual = 0.0460631, Final residual = 0.00127138, No Iterations 2
ExecutionTime = 1.05 s  ClockTime = 1 s

fieldMinMax minMax write:
    min(mag(U)) = 0 in cell 522 at location (-0.0198086 0.0254 -1.47343e-21)
    max(mag(U)) = 10.1162 in cell 10824 at location (0.287428 -0.016557 1.90217e-20)

Time = 10

smoothSolver:  Solving for Ux, Initial residual = 0.0397566, Final residual = 0.00206791, No Iterations 2
smoothSolver:  Solving for Uy, Initial residual = 0.135127, Final residual = 0.00824648, No Iterations 2
GAMG:  Solving for p, Initial residual = 0.804441, Final residual = 0.0395274, No Iterations 13
time step continuity errors : sum local = 1.19799, global = -0.0884656, cumulative = -0.72571
smoothSolver:  Solving for epsilon, Initial residual = 0.0132172, Final residual = 0.000220022, No Iterations 2
smoothSolver:  Solving for k, Initial residual = 0.0409613, Final residual = 0.00109327, No Iterations 2
ExecutionTime = 1.13 s  ClockTime = 1 s

fieldMinMax minMax write:
    min(mag(U)) = 0 in cell 522 at location (-0.0198086 0.0254 -1.47343e-21)
    max(mag(U)) = 9.38367 in cell 10824 at location (0.287428 -0.016557 1.90217e-20)

Time = 11

smoothSolver:  Solving for Ux, Initial residual = 0.30046, Final residual = 0.0170681, No Iterations 2
smoothSolver:  Solving for Uy, Initial residual = 0.079005, Final residual = 0.00474529, No Iterations 2
GAMG:  Solving for p, Initial residual = 0.299298, Final residual = 0.0120905, No Iterations 7
time step continuity errors : sum local = 1.09342, global = -0.0452351, cumulative = -0.770946
smoothSolver:  Solving for epsilon, Initial residual = 0.0130232, Final residual = 0.000201338, No Iterations 2
smoothSolver:  Solving for k, Initial residual = 0.0436546, Final residual = 0.00106942, No Iterations 2
ExecutionTime = 1.19 s  ClockTime = 1 s

fieldMinMax minMax write:
    min(mag(U)) = 0 in cell 522 at location (-0.0198086 0.0254 -1.47343e-21)
    max(mag(U)) = 7.53832 in cell 10824 at location (0.287428 -0.016557 1.90217e-20)

Time = 12

smoothSolver:  Solving for Ux, Initial residual = 0.243822, Final residual = 0.0137187, No Iterations 2
smoothSolver:  Solving for Uy, Initial residual = 0.115412, Final residual = 0.00741636, No Iterations 2
GAMG:  Solving for p, Initial residual = 0.193347, Final residual = 0.0096465, No Iterations 17
time step continuity errors : sum local = 0.634289, global = 0.0336192, cumulative = -0.737326
smoothSolver:  Solving for epsilon, Initial residual = 0.0157682, Final residual = 0.00153739, No Iterations 1
smoothSolver:  Solving for k, Initial residual = 0.0428104, Final residual = 0.00105132, No Iterations 2
ExecutionTime = 1.28 s  ClockTime = 1 s

fieldMinMax minMax write:
    min(mag(U)) = 0 in cell 522 at location (-0.0198086 0.0254 -1.47343e-21)
    max(mag(U)) = 6.78588 in cell 509 at location (-0.012648 0.0247384 -2.80301e-20)

Time = 13

smoothSolver:  Solving for Ux, Initial residual = 0.0674172, Final residual = 0.00375457, No Iterations 2
smoothSolver:  Solving for Uy, Initial residual = 0.12379, Final residual = 0.00758484, No Iterations 2
GAMG:  Solving for p, Initial residual = 0.563326, Final residual = 0.0275298, No Iterations 10
time step continuity errors : sum local = 0.915596, global = -0.0679223, cumulative = -0.805249
smoothSolver:  Solving for epsilon, Initial residual = 0.0161839, Final residual = 0.00156845, No Iterations 1
smoothSolver:  Solving for k, Initial residual = 0.0393111, Final residual = 0.00100162, No Iterations 2
ExecutionTime = 1.35 s  ClockTime = 1 s

fieldMinMax minMax write:
    min(mag(U)) = 0 in cell 522 at location (-0.0198086 0.0254 -1.47343e-21)
    max(mag(U)) = 6.99707 in cell 10824 at location (0.287428 -0.016557 1.90217e-20)

Time = 14

smoothSolver:  Solving for Ux, Initial residual = 0.205088, Final residual = 0.0117387, No Iterations 2
smoothSolver:  Solving for Uy, Initial residual = 0.0497626, Final residual = 0.00269537, No Iterations 2
GAMG:  Solving for p, Initial residual = 0.292093, Final residual = 0.0120424, No Iterations 7
time step continuity errors : sum local = 0.729913, global = -0.0377436, cumulative = -0.842992
smoothSolver:  Solving for epsilon, Initial residual = 0.0141594, Final residual = 0.000222861, No Iterations 2
smoothSolver:  Solving for k, Initial residual = 0.0362276, Final residual = 0.000950767, No Iterations 2
ExecutionTime = 1.42 s  ClockTime = 1 s

fieldMinMax minMax write:
    min(mag(U)) = 0 in cell 522 at location (-0.0198086 0.0254 -1.47343e-21)
    max(mag(U)) = 8.05197 in cell 10824 at location (0.287428 -0.016557 1.90217e-20)

Time = 15

smoothSolver:  Solving for Ux, Initial residual = 0.126739, Final residual = 0.00721375, No Iterations 2
smoothSolver:  Solving for Uy, Initial residual = 0.0896235, Final residual = 0.00541454, No Iterations 2
GAMG:  Solving for p, Initial residual = 0.224475, Final residual = 0.00975833, No Iterations 14
time step continuity errors : sum local = 0.388729, global = 0.0291622, cumulative = -0.81383
smoothSolver:  Solving for epsilon, Initial residual = 0.0130774, Final residual = 0.000206833, No Iterations 2
smoothSolver:  Solving for k, Initial residual = 0.0337174, Final residual = 0.000911556, No Iterations 2
ExecutionTime = 1.5 s  ClockTime = 1 s

fieldMinMax minMax write:
    min(mag(U)) = 0 in cell 522 at location (-0.0198086 0.0254 -1.47343e-21)
    max(mag(U)) = 8.59305 in cell 10824 at location (0.287428 -0.016557 1.90217e-20)

Time = 16

smoothSolver:  Solving for Ux, Initial residual = 0.0519122, Final residual = 0.00278407, No Iterations 2
smoothSolver:  Solving for Uy, Initial residual = 0.0876163, Final residual = 0.00532794, No Iterations 2
GAMG:  Solving for p, Initial residual = 0.599601, Final residual = 0.0279341, No Iterations 9
time step continuity errors : sum local = 0.65415, global = -0.0760217, cumulative = -0.889852
smoothSolver:  Solving for epsilon, Initial residual = 0.0117551, Final residual = 0.000185233, No Iterations 2
smoothSolver:  Solving for k, Initial residual = 0.0333294, Final residual = 0.000900678, No Iterations 2
ExecutionTime = 1.56 s  ClockTime = 1 s

fieldMinMax minMax write:
    min(mag(U)) = 0 in cell 522 at location (-0.0198086 0.0254 -1.47343e-21)
    max(mag(U)) = 8.31792 in cell 10824 at location (0.287428 -0.016557 1.90217e-20)

Time = 17

smoothSolver:  Solving for Ux, Initial residual = 0.114679, Final residual = 0.00635674, No Iterations 2
smoothSolver:  Solving for Uy, Initial residual = 0.0349736, Final residual = 0.00199132, No Iterations 2
GAMG:  Solving for p, Initial residual = 0.339114, Final residual = 0.0160906, No Iterations 8
time step continuity errors : sum local = 0.573401, global = -0.0607554, cumulative = -0.950607
smoothSolver:  Solving for epsilon, Initial residual = 0.0114542, Final residual = 0.00018204, No Iterations 2
smoothSolver:  Solving for k, Initial residual = 0.0341505, Final residual = 0.000887724, No Iterations 2
ExecutionTime = 1.64 s  ClockTime = 1 s

fieldMinMax minMax write:
    min(mag(U)) = 0 in cell 522 at location (-0.0198086 0.0254 -1.47343e-21)
    max(mag(U)) = 7.70203 in cell 10824 at location (0.287428 -0.016557 1.90217e-20)

Time = 18

smoothSolver:  Solving for Ux, Initial residual = 0.0615957, Final residual = 0.00336191, No Iterations 2
smoothSolver:  Solving for Uy, Initial residual = 0.0675224, Final residual = 0.00428775, No Iterations 2
GAMG:  Solving for p, Initial residual = 0.3313, Final residual = 0.0144583, No Iterations 14
time step continuity errors : sum local = 0.305605, global = -0.0282571, cumulative = -0.978864
smoothSolver:  Solving for epsilon, Initial residual = 0.0116123, Final residual = 0.000179313, No Iterations 2
smoothSolver:  Solving for k, Initial residual = 0.032874, Final residual = 0.000861342, No Iterations 2
ExecutionTime = 1.72 s  ClockTime = 1 s

fieldMinMax minMax write:
    min(mag(U)) = 0 in cell 522 at location (-0.0198086 0.0254 -1.47343e-21)
    max(mag(U)) = 7.40481 in cell 10824 at location (0.287428 -0.016557 1.90217e-20)

Time = 19

smoothSolver:  Solving for Ux, Initial residual = 0.0443358, Final residual = 0.00248294, No Iterations 2
smoothSolver:  Solving for Uy, Initial residual = 0.059972, Final residual = 0.0037027, No Iterations 2
GAMG:  Solving for p, Initial residual = 0.471229, Final residual = 0.0223964, No Iterations 8
time step continuity errors : sum local = 0.465584, global = -0.0543003, cumulative = -1.03316
smoothSolver:  Solving for epsilon, Initial residual = 0.0107947, Final residual = 0.000170732, No Iterations 2
smoothSolver:  Solving for k, Initial residual = 0.0313976, Final residual = 0.000823549, No Iterations 2
ExecutionTime = 1.78 s  ClockTime = 2 s

fieldMinMax minMax write:
    min(mag(U)) = 0 in cell 522 at location (-0.0198086 0.0254 -1.47343e-21)
    max(mag(U)) = 7.58931 in cell 10824 at location (0.287428 -0.016557 1.90217e-20)

Time = 20

smoothSolver:  Solving for Ux, Initial residual = 0.0714203, Final residual = 0.00406418, No Iterations 2
smoothSolver:  Solving for Uy, Initial residual = 0.0292739, Final residual = 0.00163342, No Iterations 2
GAMG:  Solving for p, Initial residual = 0.302479, Final residual = 0.0119364, No Iterations 9
time step continuity errors : sum local = 0.301765, global = 0.0348794, cumulative = -0.998285
smoothSolver:  Solving for epsilon, Initial residual = 0.00992418, Final residual = 0.000166673, No Iterations 2
smoothSolver:  Solving for k, Initial residual = 0.0298644, Final residual = 0.000795671, No Iterations 2
ExecutionTime = 1.85 s  ClockTime = 2 s

fieldMinMax minMax write:
    min(mag(U)) = 0 in cell 522 at location (-0.0198086 0.0254 -1.47343e-21)
    max(mag(U)) = 7.96051 in cell 10824 at location (0.287428 -0.016557 1.90217e-20)

Time = 21

smoothSolver:  Solving for Ux, Initial residual = 0.0371346, Final residual = 0.00211566, No Iterations 2
smoothSolver:  Solving for Uy, Initial residual = 0.0571245, Final residual = 0.00347163, No Iterations 2
GAMG:  Solving for p, Initial residual = 0.308297, Final residual = 0.0145473, No Iterations 11
time step continuity errors : sum local = 0.244122, global = -0.0266418, cumulative = -1.02493
smoothSolver:  Solving for epsilon, Initial residual = 0.00930223, Final residual = 0.000157209, No Iterations 2
smoothSolver:  Solving for k, Initial residual = 0.028365, Final residual = 0.00076926, No Iterations 2
ExecutionTime = 1.92 s  ClockTime = 2 s

fieldMinMax minMax write:
    min(mag(U)) = 0 in cell 522 at location (-0.0198086 0.0254 -1.47343e-21)
    max(mag(U)) = 8.14641 in cell 10824 at location (0.287428 -0.016557 1.90217e-20)

Time = 22

smoothSolver:  Solving for Ux, Initial residual = 0.0263609, Final residual = 0.00141744, No Iterations 2
smoothSolver:  Solving for Uy, Initial residual = 0.0455343, Final residual = 0.00279127, No Iterations 2
GAMG:  Solving for p, Initial residual = 0.594655, Final residual = 0.0242086, No Iterations 6
time step continuity errors : sum local = 0.28704, global = 0.0308322, cumulative = -0.994095
smoothSolver:  Solving for epsilon, Initial residual = 0.00861904, Final residual = 0.000148658, No Iterations 2
smoothSolver:  Solving for k, Initial residual = 0.0278711, Final residual = 0.000756557, No Iterations 2
ExecutionTime = 1.99 s  ClockTime = 2 s

fieldMinMax minMax write:
    min(mag(U)) = 0 in cell 522 at location (-0.0198086 0.0254 -1.47343e-21)
    max(mag(U)) = 8.07074 in cell 10824 at location (0.287428 -0.016557 1.90217e-20)

Time = 23

smoothSolver:  Solving for Ux, Initial residual = 0.0371894, Final residual = 0.00203134, No Iterations 2
smoothSolver:  Solving for Uy, Initial residual = 0.0254337, Final residual = 0.00155844, No Iterations 2
GAMG:  Solving for p, Initial residual = 0.383107, Final residual = 0.0182719, No Iterations 8
time step continuity errors : sum local = 0.248213, global = 0.0319664, cumulative = -0.962128
smoothSolver:  Solving for epsilon, Initial residual = 0.00843929, Final residual = 0.000144765, No Iterations 2
smoothSolver:  Solving for k, Initial residual = 0.0274761, Final residual = 0.000738939, No Iterations 2
ExecutionTime = 2.06 s  ClockTime = 2 s

fieldMinMax minMax write:
    min(mag(U)) = 0 in cell 522 at location (-0.0198086 0.0254 -1.47343e-21)
    max(mag(U)) = 7.90547 in cell 10824 at location (0.287428 -0.016557 1.90217e-20)

Time = 24

smoothSolver:  Solving for Ux, Initial residual = 0.0217284, Final residual = 0.00118982, No Iterations 2
smoothSolver:  Solving for Uy, Initial residual = 0.0404341, Final residual = 0.00255933, No Iterations 2
GAMG:  Solving for p, Initial residual = 0.484397, Final residual = 0.0185044, No Iterations 11
time step continuity errors : sum local = 0.151465, global = -0.0193786, cumulative = -0.981507
smoothSolver:  Solving for epsilon, Initial residual = 0.00828213, Final residual = 0.00014291, No Iterations 2
smoothSolver:  Solving for k, Initial residual = 0.0264716, Final residual = 0.000712783, No Iterations 2
ExecutionTime = 2.14 s  ClockTime = 2 s

fieldMinMax minMax write:
    min(mag(U)) = 0 in cell 522 at location (-0.0198086 0.0254 -1.47343e-21)
    max(mag(U)) = 7.81934 in cell 10824 at location (0.287428 -0.016557 1.90217e-20)

Time = 25

smoothSolver:  Solving for Ux, Initial residual = 0.0203505, Final residual = 0.00115702, No Iterations 2
smoothSolver:  Solving for Uy, Initial residual = 0.0340951, Final residual = 0.0021346, No Iterations 2
GAMG:  Solving for p, Initial residual = 0.41522, Final residual = 0.0198206, No Iterations 6
time step continuity errors : sum local = 0.231014, global = 0.0386184, cumulative = -0.942889
smoothSolver:  Solving for epsilon, Initial residual = 0.00787491, Final residual = 0.000139412, No Iterations 2
smoothSolver:  Solving for k, Initial residual = 0.0256013, Final residual = 0.000687785, No Iterations 2
ExecutionTime = 2.21 s  ClockTime = 2 s

fieldMinMax minMax write:
    min(mag(U)) = 0 in cell 522 at location (-0.0198086 0.0254 -1.47343e-21)
    max(mag(U)) = 7.87355 in cell 10824 at location (0.287428 -0.016557 1.90217e-20)

Time = 26

smoothSolver:  Solving for Ux, Initial residual = 0.0253028, Final residual = 0.00145617, No Iterations 2
smoothSolver:  Solving for Uy, Initial residual = 0.0245907, Final residual = 0.00147651, No Iterations 2
GAMG:  Solving for p, Initial residual = 0.286602, Final residual = 0.0126711, No Iterations 8
time step continuity errors : sum local = 0.155268, global = 0.0164287, cumulative = -0.92646
smoothSolver:  Solving for epsilon, Initial residual = 0.00741256, Final residual = 0.000133616, No Iterations 2
smoothSolver:  Solving for k, Initial residual = 0.0247069, Final residual = 0.000671615, No Iterations 2
ExecutionTime = 2.27 s  ClockTime = 2 s

fieldMinMax minMax write:
    min(mag(U)) = 0 in cell 522 at location (-0.0198086 0.0254 -1.47343e-21)
    max(mag(U)) = 7.98137 in cell 10824 at location (0.287428 -0.016557 1.90217e-20)

Time = 27

smoothSolver:  Solving for Ux, Initial residual = 0.0174435, Final residual = 0.00100363, No Iterations 2
smoothSolver:  Solving for Uy, Initial residual = 0.0333424, Final residual = 0.00205943, No Iterations 2
GAMG:  Solving for p, Initial residual = 0.305335, Final residual = 0.0122873, No Iterations 10
time step continuity errors : sum local = 0.11662, global = 0.0147306, cumulative = -0.911729
smoothSolver:  Solving for epsilon, Initial residual = 0.00711549, Final residual = 0.000130269, No Iterations 2
smoothSolver:  Solving for k, Initial residual = 0.0238721, Final residual = 0.000652659, No Iterations 2
ExecutionTime = 2.34 s  ClockTime = 2 s

fieldMinMax minMax write:
    min(mag(U)) = 0 in cell 522 at location (-0.0198086 0.0254 -1.47343e-21)
    max(mag(U)) = 8.03493 in cell 10824 at location (0.287428 -0.016557 1.90217e-20)

Time = 28

smoothSolver:  Solving for Ux, Initial residual = 0.0145004, Final residual = 0.00081031, No Iterations 2
smoothSolver:  Solving for Uy, Initial residual = 0.0255258, Final residual = 0.00159664, No Iterations 2
GAMG:  Solving for p, Initial residual = 0.523263, Final residual = 0.0203645, No Iterations 5
time step continuity errors : sum local = 0.132025, global = -0.0152164, cumulative = -0.926946
smoothSolver:  Solving for epsilon, Initial residual = 0.0068545, Final residual = 0.000127623, No Iterations 2
smoothSolver:  Solving for k, Initial residual = 0.0231764, Final residual = 0.000634288, No Iterations 2
ExecutionTime = 2.41 s  ClockTime = 2 s

fieldMinMax minMax write:
    min(mag(U)) = 0 in cell 522 at location (-0.0198086 0.0254 -1.47343e-21)
    max(mag(U)) = 8.00663 in cell 10824 at location (0.287428 -0.016557 1.90217e-20)

Time = 29

smoothSolver:  Solving for Ux, Initial residual = 0.0166547, Final residual = 0.000933625, No Iterations 2
smoothSolver:  Solving for Uy, Initial residual = 0.0205932, Final residual = 0.00130169, No Iterations 2
GAMG:  Solving for p, Initial residual = 0.423345, Final residual = 0.0203915, No Iterations 7
time step continuity errors : sum local = 0.120885, global = 0.0144674, cumulative = -0.912478
smoothSolver:  Solving for epsilon, Initial residual = 0.00668749, Final residual = 0.000124629, No Iterations 2
smoothSolver:  Solving for k, Initial residual = 0.0225774, Final residual = 0.000618096, No Iterations 2
ExecutionTime = 2.48 s  ClockTime = 2 s

fieldMinMax minMax write:
    min(mag(U)) = 0 in cell 522 at location (-0.0198086 0.0254 -1.47343e-21)
    max(mag(U)) = 7.95667 in cell 10824 at location (0.287428 -0.016557 1.90217e-20)

Time = 30

smoothSolver:  Solving for Ux, Initial residual = 0.0136882, Final residual = 0.000775124, No Iterations 2
smoothSolver:  Solving for Uy, Initial residual = 0.0267233, Final residual = 0.00170738, No Iterations 2
GAMG:  Solving for p, Initial residual = 0.394172, Final residual = 0.015887, No Iterations 8
time step continuity errors : sum local = 0.0884988, global = -0.0116099, cumulative = -0.924088
smoothSolver:  Solving for epsilon, Initial residual = 0.00654833, Final residual = 0.000122303, No Iterations 2
smoothSolver:  Solving for k, Initial residual = 0.0219841, Final residual = 0.000603792, No Iterations 2
ExecutionTime = 2.55 s  ClockTime = 2 s

fieldMinMax minMax write:
    min(mag(U)) = 0 in cell 522 at location (-0.0198086 0.0254 -1.47343e-21)
    max(mag(U)) = 7.93735 in cell 10824 at location (0.287428 -0.016557 1.90217e-20)

Time = 31

smoothSolver:  Solving for Ux, Initial residual = 0.012757, Final residual = 0.000743159, No Iterations 2
smoothSolver:  Solving for Uy, Initial residual = 0.0237248, Final residual = 0.00151036, No Iterations 2
GAMG:  Solving for p, Initial residual = 0.316426, Final residual = 0.0150908, No Iterations 4
time step continuity errors : sum local = 0.113109, global = -0.0133639, cumulative = -0.937452
smoothSolver:  Solving for epsilon, Initial residual = 0.00637627, Final residual = 0.000119251, No Iterations 2
smoothSolver:  Solving for k, Initial residual = 0.0212562, Final residual = 0.00058603, No Iterations 2
ExecutionTime = 2.61 s  ClockTime = 2 s

fieldMinMax minMax write:
    min(mag(U)) = 0 in cell 522 at location (-0.0198086 0.0254 -1.47343e-21)
    max(mag(U)) = 7.95575 in cell 10824 at location (0.287428 -0.016557 1.90217e-20)

Time = 32

smoothSolver:  Solving for Ux, Initial residual = 0.0136791, Final residual = 0.000808021, No Iterations 2
smoothSolver:  Solving for Uy, Initial residual = 0.0198122, Final residual = 0.00123658, No Iterations 2
GAMG:  Solving for p, Initial residual = 0.232603, Final residual = 0.0100472, No Iterations 6
time step continuity errors : sum local = 0.0776884, global = -0.006954, cumulative = -0.944406
smoothSolver:  Solving for epsilon, Initial residual = 0.00619447, Final residual = 0.000118185, No Iterations 2
smoothSolver:  Solving for k, Initial residual = 0.0206718, Final residual = 0.000571581, No Iterations 2
ExecutionTime = 2.68 s  ClockTime = 2 s

fieldMinMax minMax write:
    min(mag(U)) = 0 in cell 522 at location (-0.0198086 0.0254 -1.47343e-21)
    max(mag(U)) = 7.98958 in cell 10824 at location (0.287428 -0.016557 1.90217e-20)

Time = 33

smoothSolver:  Solving for Ux, Initial residual = 0.0121509, Final residual = 0.000714251, No Iterations 2
smoothSolver:  Solving for Uy, Initial residual = 0.0213382, Final residual = 0.00133895, No Iterations 2
GAMG:  Solving for p, Initial residual = 0.239429, Final residual = 0.00975012, No Iterations 7
time step continuity errors : sum local = 0.0670808, global = 0.00900477, cumulative = -0.935401
smoothSolver:  Solving for epsilon, Initial residual = 0.00594987, Final residual = 0.000113166, No Iterations 2
smoothSolver:  Solving for k, Initial residual = 0.0200505, Final residual = 0.000550817, No Iterations 2
ExecutionTime = 2.75 s  ClockTime = 3 s

fieldMinMax minMax write:
    min(mag(U)) = 0 in cell 522 at location (-0.0198086 0.0254 -1.47343e-21)
    max(mag(U)) = 8.01416 in cell 10824 at location (0.287428 -0.016557 1.90217e-20)

Time = 34

smoothSolver:  Solving for Ux, Initial residual = 0.0112419, Final residual = 0.000655287, No Iterations 2
smoothSolver:  Solving for Uy, Initial residual = 0.0180865, Final residual = 0.00115294, No Iterations 2
GAMG:  Solving for p, Initial residual = 0.291714, Final residual = 0.00922363, No Iterations 5
time step continuity errors : sum local = 0.0537775, global = 0.00734762, cumulative = -0.928054
smoothSolver:  Solving for epsilon, Initial residual = 0.00576001, Final residual = 0.000110047, No Iterations 2
smoothSolver:  Solving for k, Initial residual = 0.0195757, Final residual = 0.000539331, No Iterations 2
ExecutionTime = 2.81 s  ClockTime = 3 s

fieldMinMax minMax write:
    min(mag(U)) = 0 in cell 522 at location (-0.0198086 0.0254 -1.47343e-21)
    max(mag(U)) = 8.01684 in cell 10824 at location (0.287428 -0.016557 1.90217e-20)

Time = 35

smoothSolver:  Solving for Ux, Initial residual = 0.0113531, Final residual = 0.000661443, No Iterations 2
smoothSolver:  Solving for Uy, Initial residual = 0.0177048, Final residual = 0.00113327, No Iterations 2
GAMG:  Solving for p, Initial residual = 0.256075, Final residual = 0.00971586, No Iterations 6
time step continuity errors : sum local = 0.0501706, global = 0.00356333, cumulative = -0.92449
smoothSolver:  Solving for epsilon, Initial residual = 0.00561535, Final residual = 0.000107647, No Iterations 2
smoothSolver:  Solving for k, Initial residual = 0.0190515, Final residual = 0.000525208, No Iterations 2
ExecutionTime = 2.88 s  ClockTime = 3 s

fieldMinMax minMax write:
    min(mag(U)) = 0 in cell 522 at location (-0.0198086 0.0254 -1.47343e-21)
    max(mag(U)) = 8.00282 in cell 10824 at location (0.287428 -0.016557 1.90217e-20)

Time = 36

smoothSolver:  Solving for Ux, Initial residual = 0.0106024, Final residual = 0.000620789, No Iterations 2
smoothSolver:  Solving for Uy, Initial residual = 0.0199999, Final residual = 0.00129156, No Iterations 2
GAMG:  Solving for p, Initial residual = 0.233388, Final residual = 0.00932663, No Iterations 6
time step continuity errors : sum local = 0.0496945, global = 0.00598992, cumulative = -0.918501
smoothSolver:  Solving for epsilon, Initial residual = 0.00542714, Final residual = 0.000104466, No Iterations 2
smoothSolver:  Solving for k, Initial residual = 0.0185377, Final residual = 0.000510796, No Iterations 2
ExecutionTime = 2.94 s  ClockTime = 3 s

fieldMinMax minMax write:
    min(mag(U)) = 0 in cell 522 at location (-0.0198086 0.0254 -1.47343e-21)
    max(mag(U)) = 7.98993 in cell 10824 at location (0.287428 -0.016557 1.90217e-20)

Time = 37

smoothSolver:  Solving for Ux, Initial residual = 0.0102505, Final residual = 0.00060804, No Iterations 2
smoothSolver:  Solving for Uy, Initial residual = 0.0190051, Final residual = 0.00122441, No Iterations 2
GAMG:  Solving for p, Initial residual = 0.211086, Final residual = 0.0081389, No Iterations 5
time step continuity errors : sum local = 0.0479745, global = -0.00810345, cumulative = -0.926604
smoothSolver:  Solving for epsilon, Initial residual = 0.00528658, Final residual = 0.00010171, No Iterations 2
smoothSolver:  Solving for k, Initial residual = 0.0180434, Final residual = 0.000499752, No Iterations 2
ExecutionTime = 3 s  ClockTime = 3 s

fieldMinMax minMax write:
    min(mag(U)) = 0 in cell 522 at location (-0.0198086 0.0254 -1.47343e-21)
    max(mag(U)) = 7.9859 in cell 10824 at location (0.287428 -0.016557 1.90217e-20)

Time = 38

smoothSolver:  Solving for Ux, Initial residual = 0.0101748, Final residual = 0.000610974, No Iterations 2
smoothSolver:  Solving for Uy, Initial residual = 0.0170343, Final residual = 0.00109232, No Iterations 2
GAMG:  Solving for p, Initial residual = 0.169765, Final residual = 0.00719358, No Iterations 5
time step continuity errors : sum local = 0.0430435, global = -0.000656702, cumulative = -0.927261
smoothSolver:  Solving for epsilon, Initial residual = 0.00515799, Final residual = 0.000100616, No Iterations 2
smoothSolver:  Solving for k, Initial residual = 0.0175309, Final residual = 0.000483565, No Iterations 2
ExecutionTime = 3.07 s  ClockTime = 3 s

fieldMinMax minMax write:
    min(mag(U)) = 0 in cell 522 at location (-0.0198086 0.0254 -1.47343e-21)
    max(mag(U)) = 7.99084 in cell 10824 at location (0.287428 -0.016557 1.90217e-20)

Time = 39

smoothSolver:  Solving for Ux, Initial residual = 0.00986066, Final residual = 0.000592047, No Iterations 2
smoothSolver:  Solving for Uy, Initial residual = 0.0165767, Final residual = 0.00106052, No Iterations 2
GAMG:  Solving for p, Initial residual = 0.163363, Final residual = 0.00566261, No Iterations 5
time step continuity errors : sum local = 0.0329942, global = 0.00331753, cumulative = -0.923943
smoothSolver:  Solving for epsilon, Initial residual = 0.00502711, Final residual = 9.8232e-05, No Iterations 2
smoothSolver:  Solving for k, Initial residual = 0.0170876, Final residual = 0.000471793, No Iterations 2
ExecutionTime = 3.14 s  ClockTime = 3 s

fieldMinMax minMax write:
    min(mag(U)) = 0 in cell 522 at location (-0.0198086 0.0254 -1.47343e-21)
    max(mag(U)) = 8.00003 in cell 10824 at location (0.287428 -0.016557 1.90217e-20)

Time = 40

smoothSolver:  Solving for Ux, Initial residual = 0.00959129, Final residual = 0.000574853, No Iterations 2
smoothSolver:  Solving for Uy, Initial residual = 0.0158371, Final residual = 0.00101518, No Iterations 2
GAMG:  Solving for p, Initial residual = 0.1702, Final residual = 0.00480403, No Iterations 5
time step continuity errors : sum local = 0.0264753, global = 0.00339084, cumulative = -0.920552
smoothSolver:  Solving for epsilon, Initial residual = 0.00494179, Final residual = 9.62311e-05, No Iterations 2
smoothSolver:  Solving for k, Initial residual = 0.0166877, Final residual = 0.000458965, No Iterations 2
ExecutionTime = 3.2 s  ClockTime = 3 s

fieldMinMax minMax write:
    min(mag(U)) = 0 in cell 522 at location (-0.0198086 0.0254 -1.47343e-21)
    max(mag(U)) = 8.00391 in cell 10824 at location (0.287428 -0.016557 1.90217e-20)

Time = 41

smoothSolver:  Solving for Ux, Initial residual = 0.00941712, Final residual = 0.000564447, No Iterations 2
smoothSolver:  Solving for Uy, Initial residual = 0.0160322, Final residual = 0.00102995, No Iterations 2
GAMG:  Solving for p, Initial residual = 0.154418, Final residual = 0.00537687, No Iterations 5
time step continuity errors : sum local = 0.0281064, global = -0.00311165, cumulative = -0.923664
smoothSolver:  Solving for epsilon, Initial residual = 0.00484903, Final residual = 9.38842e-05, No Iterations 2
smoothSolver:  Solving for k, Initial residual = 0.016379, Final residual = 0.000454227, No Iterations 2
ExecutionTime = 3.27 s  ClockTime = 3 s

fieldMinMax minMax write:
    min(mag(U)) = 0 in cell 522 at location (-0.0198086 0.0254 -1.47343e-21)
    max(mag(U)) = 7.99807 in cell 10824 at location (0.287428 -0.016557 1.90217e-20)

Time = 42

smoothSolver:  Solving for Ux, Initial residual = 0.00918979, Final residual = 0.000551429, No Iterations 2
smoothSolver:  Solving for Uy, Initial residual = 0.0168103, Final residual = 0.00108595, No Iterations 2
GAMG:  Solving for p, Initial residual = 0.147228, Final residual = 0.00484665, No Iterations 5
time step continuity errors : sum local = 0.0251055, global = -0.0011223, cumulative = -0.924786
smoothSolver:  Solving for epsilon, Initial residual = 0.00478269, Final residual = 9.22805e-05, No Iterations 2
smoothSolver:  Solving for k, Initial residual = 0.015996, Final residual = 0.000443186, No Iterations 2
ExecutionTime = 3.33 s  ClockTime = 3 s

fieldMinMax minMax write:
    min(mag(U)) = 0 in cell 522 at location (-0.0198086 0.0254 -1.47343e-21)
    max(mag(U)) = 7.98808 in cell 10824 at location (0.287428 -0.016557 1.90217e-20)

Time = 43

smoothSolver:  Solving for Ux, Initial residual = 0.00900294, Final residual = 0.000542787, No Iterations 2
smoothSolver:  Solving for Uy, Initial residual = 0.0165913, Final residual = 0.00107003, No Iterations 2
GAMG:  Solving for p, Initial residual = 0.139871, Final residual = 0.00382831, No Iterations 5
time step continuity errors : sum local = 0.0203104, global = 0.00151978, cumulative = -0.923267
smoothSolver:  Solving for epsilon, Initial residual = 0.00470101, Final residual = 9.12368e-05, No Iterations 2
smoothSolver:  Solving for k, Initial residual = 0.0156557, Final residual = 0.000432646, No Iterations 2
ExecutionTime = 3.4 s  ClockTime = 3 s

fieldMinMax minMax write:
    min(mag(U)) = 0 in cell 522 at location (-0.0198086 0.0254 -1.47343e-21)
    max(mag(U)) = 7.9827 in cell 10824 at location (0.287428 -0.016557 1.90217e-20)

Time = 44

smoothSolver:  Solving for Ux, Initial residual = 0.00884365, Final residual = 0.000536433, No Iterations 2
smoothSolver:  Solving for Uy, Initial residual = 0.0157957, Final residual = 0.00101559, No Iterations 2
GAMG:  Solving for p, Initial residual = 0.124579, Final residual = 0.00337832, No Iterations 5
time step continuity errors : sum local = 0.0181664, global = 0.000807027, cumulative = -0.92246
smoothSolver:  Solving for epsilon, Initial residual = 0.00461889, Final residual = 8.93404e-05, No Iterations 2
smoothSolver:  Solving for k, Initial residual = 0.0153221, Final residual = 0.00042459, No Iterations 2
ExecutionTime = 3.45 s  ClockTime = 3 s

fieldMinMax minMax write:
    min(mag(U)) = 0 in cell 522 at location (-0.0198086 0.0254 -1.47343e-21)
    max(mag(U)) = 7.98294 in cell 10824 at location (0.287428 -0.016557 1.90217e-20)

Time = 45

smoothSolver:  Solving for Ux, Initial residual = 0.00870678, Final residual = 0.000529179, No Iterations 2
smoothSolver:  Solving for Uy, Initial residual = 0.0154025, Final residual = 0.000985936, No Iterations 2
GAMG:  Solving for p, Initial residual = 0.1187, Final residual = 0.00375367, No Iterations 5
time step continuity errors : sum local = 0.0200475, global = 0.000647831, cumulative = -0.921812
smoothSolver:  Solving for epsilon, Initial residual = 0.00455794, Final residual = 8.81903e-05, No Iterations 2
smoothSolver:  Solving for k, Initial residual = 0.0149969, Final residual = 0.000414818, No Iterations 2
ExecutionTime = 3.52 s  ClockTime = 3 s

fieldMinMax minMax write:
    min(mag(U)) = 0 in cell 522 at location (-0.0198086 0.0254 -1.47343e-21)
    max(mag(U)) = 7.98484 in cell 10824 at location (0.287428 -0.016557 1.90217e-20)

Time = 46

smoothSolver:  Solving for Ux, Initial residual = 0.00855115, Final residual = 0.000520456, No Iterations 2
smoothSolver:  Solving for Uy, Initial residual = 0.0151298, Final residual = 0.000965465, No Iterations 2
GAMG:  Solving for p, Initial residual = 0.117652, Final residual = 0.0032857, No Iterations 5
time step continuity errors : sum local = 0.0171858, global = -0.00122838, cumulative = -0.92304
smoothSolver:  Solving for epsilon, Initial residual = 0.00445863, Final residual = 8.60354e-05, No Iterations 2
smoothSolver:  Solving for k, Initial residual = 0.0147274, Final residual = 0.000408662, No Iterations 2
ExecutionTime = 3.59 s  ClockTime = 3 s

fieldMinMax minMax write:
    min(mag(U)) = 0 in cell 522 at location (-0.0198086 0.0254 -1.47343e-21)
    max(mag(U)) = 7.98384 in cell 10824 at location (0.287428 -0.016557 1.90217e-20)

Time = 47

smoothSolver:  Solving for Ux, Initial residual = 0.00839364, Final residual = 0.000511326, No Iterations 2
smoothSolver:  Solving for Uy, Initial residual = 0.0151296, Final residual = 0.000968605, No Iterations 2
GAMG:  Solving for p, Initial residual = 0.112677, Final residual = 0.00332058, No Iterations 5
time step continuity errors : sum local = 0.0169758, global = -0.00174349, cumulative = -0.924784
smoothSolver:  Solving for epsilon, Initial residual = 0.00440329, Final residual = 8.52108e-05, No Iterations 2
smoothSolver:  Solving for k, Initial residual = 0.014476, Final residual = 0.000402517, No Iterations 2
ExecutionTime = 3.66 s  ClockTime = 3 s

fieldMinMax minMax write:
    min(mag(U)) = 0 in cell 522 at location (-0.0198086 0.0254 -1.47343e-21)
    max(mag(U)) = 7.9791 in cell 10824 at location (0.287428 -0.016557 1.90217e-20)

Time = 48

smoothSolver:  Solving for Ux, Initial residual = 0.00827069, Final residual = 0.000504299, No Iterations 2
smoothSolver:  Solving for Uy, Initial residual = 0.0154385, Final residual = 0.000992679, No Iterations 2
GAMG:  Solving for p, Initial residual = 0.109431, Final residual = 0.00480057, No Iterations 4
time step continuity errors : sum local = 0.0242856, global = -0.000213932, cumulative = -0.924997
smoothSolver:  Solving for epsilon, Initial residual = 0.00433783, Final residual = 8.35406e-05, No Iterations 2
smoothSolver:  Solving for k, Initial residual = 0.0142365, Final residual = 0.000396668, No Iterations 2
ExecutionTime = 3.72 s  ClockTime = 3 s

fieldMinMax minMax write:
    min(mag(U)) = 0 in cell 522 at location (-0.0198086 0.0254 -1.47343e-21)
    max(mag(U)) = 7.97334 in cell 10824 at location (0.287428 -0.016557 1.90217e-20)

Time = 49

smoothSolver:  Solving for Ux, Initial residual = 0.00814406, Final residual = 0.000497874, No Iterations 2
smoothSolver:  Solving for Uy, Initial residual = 0.0154207, Final residual = 0.000992615, No Iterations 2
GAMG:  Solving for p, Initial residual = 0.10756, Final residual = 0.00234372, No Iterations 5
time step continuity errors : sum local = 0.0118623, global = -7.11741e-05, cumulative = -0.925069
smoothSolver:  Solving for epsilon, Initial residual = 0.00425194, Final residual = 8.17078e-05, No Iterations 2
smoothSolver:  Solving for k, Initial residual = 0.0139899, Final residual = 0.000391441, No Iterations 2
ExecutionTime = 3.79 s  ClockTime = 4 s

fieldMinMax minMax write:
    min(mag(U)) = 0 in cell 522 at location (-0.0198086 0.0254 -1.47343e-21)
    max(mag(U)) = 7.96951 in cell 10824 at location (0.287428 -0.016557 1.90217e-20)

Time = 50

smoothSolver:  Solving for Ux, Initial residual = 0.00801434, Final residual = 0.000491201, No Iterations 2
smoothSolver:  Solving for Uy, Initial residual = 0.0151667, Final residual = 0.00097078, No Iterations 2
GAMG:  Solving for p, Initial residual = 0.10021, Final residual = 0.00378693, No Iterations 4
time step continuity errors : sum local = 0.0192834, global = 3.59151e-06, cumulative = -0.925065
smoothSolver:  Solving for epsilon, Initial residual = 0.00417293, Final residual = 8.01409e-05, No Iterations 2
smoothSolver:  Solving for k, Initial residual = 0.0137505, Final residual = 0.0003849, No Iterations 2
ExecutionTime = 3.86 s  ClockTime = 4 s

fieldMinMax minMax write:
    min(mag(U)) = 0 in cell 522 at location (-0.0198086 0.0254 -1.47343e-21)
    max(mag(U)) = 7.9677 in cell 10824 at location (0.287428 -0.016557 1.90217e-20)

Time = 51

smoothSolver:  Solving for Ux, Initial residual = 0.00788403, Final residual = 0.000484364, No Iterations 2
smoothSolver:  Solving for Uy, Initial residual = 0.0149947, Final residual = 0.000955352, No Iterations 2
GAMG:  Solving for p, Initial residual = 0.0963624, Final residual = 0.00365401, No Iterations 4
time step continuity errors : sum local = 0.0185444, global = 0.000312194, cumulative = -0.924753
smoothSolver:  Solving for epsilon, Initial residual = 0.00408512, Final residual = 7.89203e-05, No Iterations 2
smoothSolver:  Solving for k, Initial residual = 0.0135255, Final residual = 0.000379022, No Iterations 2
ExecutionTime = 3.92 s  ClockTime = 4 s

fieldMinMax minMax write:
    min(mag(U)) = 0 in cell 522 at location (-0.0198086 0.0254 -1.47343e-21)
    max(mag(U)) = 7.96616 in cell 10824 at location (0.287428 -0.016557 1.90217e-20)

Time = 52

smoothSolver:  Solving for Ux, Initial residual = 0.00774625, Final residual = 0.00047701, No Iterations 2
smoothSolver:  Solving for Uy, Initial residual = 0.014735, Final residual = 0.000938323, No Iterations 2
GAMG:  Solving for p, Initial residual = 0.0951618, Final residual = 0.0032764, No Iterations 5
time step continuity errors : sum local = 0.0165536, global = -0.00138068, cumulative = -0.926134
smoothSolver:  Solving for epsilon, Initial residual = 0.00402621, Final residual = 7.74854e-05, No Iterations 2
smoothSolver:  Solving for k, Initial residual = 0.0133468, Final residual = 0.000375144, No Iterations 2
ExecutionTime = 3.99 s  ClockTime = 4 s

fieldMinMax minMax write:
    min(mag(U)) = 0 in cell 522 at location (-0.0198086 0.0254 -1.47343e-21)
    max(mag(U)) = 7.96311 in cell 10824 at location (0.287428 -0.016557 1.90217e-20)

Time = 53

smoothSolver:  Solving for Ux, Initial residual = 0.00764578, Final residual = 0.000470912, No Iterations 2
smoothSolver:  Solving for Uy, Initial residual = 0.0145233, Final residual = 0.000925377, No Iterations 2
GAMG:  Solving for p, Initial residual = 0.0926206, Final residual = 0.0036537, No Iterations 4
time step continuity errors : sum local = 0.018217, global = 0.000275408, cumulative = -0.925858
smoothSolver:  Solving for epsilon, Initial residual = 0.00395525, Final residual = 7.60811e-05, No Iterations 2
smoothSolver:  Solving for k, Initial residual = 0.013162, Final residual = 0.000370184, No Iterations 2
ExecutionTime = 4.05 s  ClockTime = 4 s

fieldMinMax minMax write:
    min(mag(U)) = 0 in cell 522 at location (-0.0198086 0.0254 -1.47343e-21)
    max(mag(U)) = 7.95864 in cell 10824 at location (0.287428 -0.016557 1.90217e-20)

Time = 54

smoothSolver:  Solving for Ux, Initial residual = 0.00754434, Final residual = 0.000465024, No Iterations 2
smoothSolver:  Solving for Uy, Initial residual = 0.0145218, Final residual = 0.000928156, No Iterations 2
GAMG:  Solving for p, Initial residual = 0.0918075, Final residual = 0.00326696, No Iterations 4
time step continuity errors : sum local = 0.0161565, global = 7.98157e-05, cumulative = -0.925778
smoothSolver:  Solving for epsilon, Initial residual = 0.00390134, Final residual = 7.49869e-05, No Iterations 2
smoothSolver:  Solving for k, Initial residual = 0.012982, Final residual = 0.000366524, No Iterations 2
ExecutionTime = 4.11 s  ClockTime = 4 s

fieldMinMax minMax write:
    min(mag(U)) = 0 in cell 522 at location (-0.0198086 0.0254 -1.47343e-21)
    max(mag(U)) = 7.95452 in cell 10824 at location (0.287428 -0.016557 1.90217e-20)

Time = 55

smoothSolver:  Solving for Ux, Initial residual = 0.00742983, Final residual = 0.000458903, No Iterations 2
smoothSolver:  Solving for Uy, Initial residual = 0.0146171, Final residual = 0.000934244, No Iterations 2
GAMG:  Solving for p, Initial residual = 0.0898443, Final residual = 0.00292194, No Iterations 4
time step continuity errors : sum local = 0.0143909, global = 0.000389077, cumulative = -0.925389
smoothSolver:  Solving for epsilon, Initial residual = 0.00382393, Final residual = 7.38627e-05, No Iterations 2
smoothSolver:  Solving for k, Initial residual = 0.0128163, Final residual = 0.000362601, No Iterations 2
ExecutionTime = 4.18 s  ClockTime = 4 s

fieldMinMax minMax write:
    min(mag(U)) = 0 in cell 522 at location (-0.0198086 0.0254 -1.47343e-21)
    max(mag(U)) = 7.95124 in cell 10824 at location (0.287428 -0.016557 1.90217e-20)

Time = 56

smoothSolver:  Solving for Ux, Initial residual = 0.0073159, Final residual = 0.000452363, No Iterations 2
smoothSolver:  Solving for Uy, Initial residual = 0.0146315, Final residual = 0.000933105, No Iterations 2
GAMG:  Solving for p, Initial residual = 0.0864342, Final residual = 0.0027017, No Iterations 4
time step continuity errors : sum local = 0.0132685, global = 0.00034441, cumulative = -0.925045
smoothSolver:  Solving for epsilon, Initial residual = 0.00377843, Final residual = 7.26033e-05, No Iterations 2
smoothSolver:  Solving for k, Initial residual = 0.0126567, Final residual = 0.000358992, No Iterations 2
ExecutionTime = 4.25 s  ClockTime = 4 s

fieldMinMax minMax write:
    min(mag(U)) = 0 in cell 522 at location (-0.0198086 0.0254 -1.47343e-21)
    max(mag(U)) = 7.94861 in cell 10824 at location (0.287428 -0.016557 1.90217e-20)

Time = 57

smoothSolver:  Solving for Ux, Initial residual = 0.00720487, Final residual = 0.000445934, No Iterations 2
smoothSolver:  Solving for Uy, Initial residual = 0.0145194, Final residual = 0.000924324, No Iterations 2
GAMG:  Solving for p, Initial residual = 0.0844233, Final residual = 0.00266138, No Iterations 4
time step continuity errors : sum local = 0.0130451, global = 0.000383284, cumulative = -0.924662
smoothSolver:  Solving for epsilon, Initial residual = 0.00371359, Final residual = 7.18243e-05, No Iterations 2
smoothSolver:  Solving for k, Initial residual = 0.0124928, Final residual = 0.000354632, No Iterations 2
ExecutionTime = 4.31 s  ClockTime = 4 s

fieldMinMax minMax write:
    min(mag(U)) = 0 in cell 522 at location (-0.0198086 0.0254 -1.47343e-21)
    max(mag(U)) = 7.94584 in cell 10824 at location (0.287428 -0.016557 1.90217e-20)

Time = 58

smoothSolver:  Solving for Ux, Initial residual = 0.00710123, Final residual = 0.000439949, No Iterations 2
smoothSolver:  Solving for Uy, Initial residual = 0.0142941, Final residual = 0.000909333, No Iterations 2
GAMG:  Solving for p, Initial residual = 0.0824583, Final residual = 0.00282407, No Iterations 4
time step continuity errors : sum local = 0.0138023, global = 0.000480592, cumulative = -0.924181
smoothSolver:  Solving for epsilon, Initial residual = 0.00365497, Final residual = 7.04865e-05, No Iterations 2
smoothSolver:  Solving for k, Initial residual = 0.0123528, Final residual = 0.000351926, No Iterations 2
ExecutionTime = 4.37 s  ClockTime = 4 s

fieldMinMax minMax write:
    min(mag(U)) = 0 in cell 522 at location (-0.0198086 0.0254 -1.47343e-21)
    max(mag(U)) = 7.94253 in cell 10824 at location (0.287428 -0.016557 1.90217e-20)

Time = 59

smoothSolver:  Solving for Ux, Initial residual = 0.00700906, Final residual = 0.000434622, No Iterations 2
smoothSolver:  Solving for Uy, Initial residual = 0.0140613, Final residual = 0.000894783, No Iterations 2
GAMG:  Solving for p, Initial residual = 0.0814069, Final residual = 0.00301195, No Iterations 4
time step continuity errors : sum local = 0.01467, global = 0.000476578, cumulative = -0.923704
smoothSolver:  Solving for epsilon, Initial residual = 0.00360388, Final residual = 6.98226e-05, No Iterations 2
smoothSolver:  Solving for k, Initial residual = 0.0121903, Final residual = 0.00034753, No Iterations 2
ExecutionTime = 4.44 s  ClockTime = 4 s

fieldMinMax minMax write:
    min(mag(U)) = 0 in cell 522 at location (-0.0198086 0.0254 -1.47343e-21)
    max(mag(U)) = 7.93877 in cell 10824 at location (0.287428 -0.016557 1.90217e-20)

Time = 60

smoothSolver:  Solving for Ux, Initial residual = 0.00692001, Final residual = 0.000429385, No Iterations 2
smoothSolver:  Solving for Uy, Initial residual = 0.0139486, Final residual = 0.000887806, No Iterations 2
GAMG:  Solving for p, Initial residual = 0.0798648, Final residual = 0.00307539, No Iterations 4
time step continuity errors : sum local = 0.0149192, global = 0.000566013, cumulative = -0.923138
smoothSolver:  Solving for epsilon, Initial residual = 0.00355118, Final residual = 6.85778e-05, No Iterations 2
smoothSolver:  Solving for k, Initial residual = 0.0120573, Final residual = 0.000344896, No Iterations 2
ExecutionTime = 4.5 s  ClockTime = 4 s

fieldMinMax minMax write:
    min(mag(U)) = 0 in cell 522 at location (-0.0198086 0.0254 -1.47343e-21)
    max(mag(U)) = 7.93494 in cell 10824 at location (0.287428 -0.016557 1.90217e-20)

Time = 61

smoothSolver:  Solving for Ux, Initial residual = 0.00682819, Final residual = 0.0004239, No Iterations 2
smoothSolver:  Solving for Uy, Initial residual = 0.0139245, Final residual = 0.000886149, No Iterations 2
GAMG:  Solving for p, Initial residual = 0.0779258, Final residual = 0.00273942, No Iterations 4
time step continuity errors : sum local = 0.0132208, global = 0.000851302, cumulative = -0.922287
smoothSolver:  Solving for epsilon, Initial residual = 0.00349329, Final residual = 6.74855e-05, No Iterations 2
smoothSolver:  Solving for k, Initial residual = 0.011903, Final residual = 0.00034104, No Iterations 2
ExecutionTime = 4.57 s  ClockTime = 4 s

fieldMinMax minMax write:
    min(mag(U)) = 0 in cell 522 at location (-0.0198086 0.0254 -1.47343e-21)
    max(mag(U)) = 7.93144 in cell 10824 at location (0.287428 -0.016557 1.90217e-20)

Time = 62

smoothSolver:  Solving for Ux, Initial residual = 0.00673057, Final residual = 0.000418101, No Iterations 2
smoothSolver:  Solving for Uy, Initial residual = 0.013911, Final residual = 0.000885286, No Iterations 2
GAMG:  Solving for p, Initial residual = 0.0766693, Final residual = 0.0022929, No Iterations 4
time step continuity errors : sum local = 0.0110196, global = 0.000817408, cumulative = -0.92147
smoothSolver:  Solving for epsilon, Initial residual = 0.00344527, Final residual = 6.67231e-05, No Iterations 2
smoothSolver:  Solving for k, Initial residual = 0.0117684, Final residual = 0.000337998, No Iterations 2
ExecutionTime = 4.63 s  ClockTime = 4 s

fieldMinMax minMax write:
    min(mag(U)) = 0 in cell 522 at location (-0.0198086 0.0254 -1.47343e-21)
    max(mag(U)) = 7.92832 in cell 10824 at location (0.287428 -0.016557 1.90217e-20)

Time = 63

smoothSolver:  Solving for Ux, Initial residual = 0.00663839, Final residual = 0.000412513, No Iterations 2
smoothSolver:  Solving for Uy, Initial residual = 0.0138447, Final residual = 0.00088178, No Iterations 2
GAMG:  Solving for p, Initial residual = 0.0742392, Final residual = 0.0021718, No Iterations 4
time step continuity errors : sum local = 0.0104087, global = 0.000818084, cumulative = -0.920652
smoothSolver:  Solving for epsilon, Initial residual = 0.00340012, Final residual = 6.57469e-05, No Iterations 2
smoothSolver:  Solving for k, Initial residual = 0.0116345, Final residual = 0.000335061, No Iterations 2
ExecutionTime = 4.69 s  ClockTime = 4 s

fieldMinMax minMax write:
    min(mag(U)) = 0 in cell 522 at location (-0.0198086 0.0254 -1.47343e-21)
    max(mag(U)) = 7.92527 in cell 10824 at location (0.287428 -0.016557 1.90217e-20)

Time = 64

smoothSolver:  Solving for Ux, Initial residual = 0.00655092, Final residual = 0.000407256, No Iterations 2
smoothSolver:  Solving for Uy, Initial residual = 0.0137081, Final residual = 0.000873876, No Iterations 2
GAMG:  Solving for p, Initial residual = 0.0733287, Final residual = 0.00227149, No Iterations 4
time step continuity errors : sum local = 0.0108707, global = 0.000933869, cumulative = -0.919718
smoothSolver:  Solving for epsilon, Initial residual = 0.00334414, Final residual = 6.4881e-05, No Iterations 2
smoothSolver:  Solving for k, Initial residual = 0.0115084, Final residual = 0.000332285, No Iterations 2
ExecutionTime = 4.77 s  ClockTime = 5 s

fieldMinMax minMax write:
    min(mag(U)) = 0 in cell 522 at location (-0.0198086 0.0254 -1.47343e-21)
    max(mag(U)) = 7.9221 in cell 10824 at location (0.287428 -0.016557 1.90217e-20)

Time = 65

smoothSolver:  Solving for Ux, Initial residual = 0.00646668, Final residual = 0.000402235, No Iterations 2
smoothSolver:  Solving for Uy, Initial residual = 0.0135389, Final residual = 0.000863888, No Iterations 2
GAMG:  Solving for p, Initial residual = 0.0724274, Final residual = 0.00243616, No Iterations 4
time step continuity errors : sum local = 0.0116389, global = 0.00109779, cumulative = -0.91862
smoothSolver:  Solving for epsilon, Initial residual = 0.00329813, Final residual = 6.41579e-05, No Iterations 2
smoothSolver:  Solving for k, Initial residual = 0.0113808, Final residual = 0.000328789, No Iterations 2
ExecutionTime = 4.84 s  ClockTime = 5 s

fieldMinMax minMax write:
    min(mag(U)) = 0 in cell 522 at location (-0.0198086 0.0254 -1.47343e-21)
    max(mag(U)) = 7.91881 in cell 10824 at location (0.287428 -0.016557 1.90217e-20)

Time = 66

smoothSolver:  Solving for Ux, Initial residual = 0.00638583, Final residual = 0.00039742, No Iterations 2
smoothSolver:  Solving for Uy, Initial residual = 0.0134018, Final residual = 0.000855273, No Iterations 2
GAMG:  Solving for p, Initial residual = 0.0706831, Final residual = 0.0024943, No Iterations 4
time step continuity errors : sum local = 0.0118856, global = 0.00122032, cumulative = -0.9174
smoothSolver:  Solving for epsilon, Initial residual = 0.00325156, Final residual = 6.31276e-05, No Iterations 2
smoothSolver:  Solving for k, Initial residual = 0.0112719, Final residual = 0.000326809, No Iterations 2
ExecutionTime = 4.9 s  ClockTime = 5 s

fieldMinMax minMax write:
    min(mag(U)) = 0 in cell 522 at location (-0.0198086 0.0254 -1.47343e-21)
    max(mag(U)) = 7.91549 in cell 10824 at location (0.287428 -0.016557 1.90217e-20)

Time = 67

smoothSolver:  Solving for Ux, Initial residual = 0.00630695, Final residual = 0.000392671, No Iterations 2
smoothSolver:  Solving for Uy, Initial residual = 0.0133093, Final residual = 0.000849607, No Iterations 2
GAMG:  Solving for p, Initial residual = 0.0696526, Final residual = 0.00241975, No Iterations 4
time step continuity errors : sum local = 0.0115021, global = 0.00123798, cumulative = -0.916162
smoothSolver:  Solving for epsilon, Initial residual = 0.00320245, Final residual = 6.21421e-05, No Iterations 2
smoothSolver:  Solving for k, Initial residual = 0.0111485, Final residual = 0.000323629, No Iterations 2
ExecutionTime = 4.95 s  ClockTime = 5 s

fieldMinMax minMax write:
    min(mag(U)) = 0 in cell 522 at location (-0.0198086 0.0254 -1.47343e-21)
    max(mag(U)) = 7.91222 in cell 10824 at location (0.287428 -0.016557 1.90217e-20)

Time = 68

smoothSolver:  Solving for Ux, Initial residual = 0.0062293, Final residual = 0.000387924, No Iterations 2
smoothSolver:  Solving for Uy, Initial residual = 0.0132448, Final residual = 0.000846008, No Iterations 2
GAMG:  Solving for p, Initial residual = 0.0682019, Final residual = 0.00227784, No Iterations 4
time step continuity errors : sum local = 0.0107994, global = 0.0011813, cumulative = -0.91498
smoothSolver:  Solving for epsilon, Initial residual = 0.00316043, Final residual = 6.16754e-05, No Iterations 2
smoothSolver:  Solving for k, Initial residual = 0.0110352, Final residual = 0.000321586, No Iterations 2
ExecutionTime = 5 s  ClockTime = 5 s

fieldMinMax minMax write:
    min(mag(U)) = 0 in cell 522 at location (-0.0198086 0.0254 -1.47343e-21)
    max(mag(U)) = 7.90899 in cell 10824 at location (0.287428 -0.016557 1.90217e-20)

Time = 69

smoothSolver:  Solving for Ux, Initial residual = 0.00615196, Final residual = 0.000383259, No Iterations 2
smoothSolver:  Solving for Uy, Initial residual = 0.0131725, Final residual = 0.000842232, No Iterations 2
GAMG:  Solving for p, Initial residual = 0.0665075, Final residual = 0.00217314, No Iterations 4
time step continuity errors : sum local = 0.0102751, global = 0.00116436, cumulative = -0.913816
smoothSolver:  Solving for epsilon, Initial residual = 0.00311232, Final residual = 6.08078e-05, No Iterations 2
smoothSolver:  Solving for k, Initial residual = 0.0109242, Final residual = 0.000319292, No Iterations 2
ExecutionTime = 5.05 s  ClockTime = 5 s

fieldMinMax minMax write:
    min(mag(U)) = 0 in cell 522 at location (-0.0198086 0.0254 -1.47343e-21)
    max(mag(U)) = 7.90572 in cell 10824 at location (0.287428 -0.016557 1.90217e-20)

Time = 70

smoothSolver:  Solving for Ux, Initial residual = 0.00607518, Final residual = 0.000378747, No Iterations 2
smoothSolver:  Solving for Uy, Initial residual = 0.0130683, Final residual = 0.000837005, No Iterations 2
GAMG:  Solving for p, Initial residual = 0.0658603, Final residual = 0.00216028, No Iterations 4
time step continuity errors : sum local = 0.0101915, global = 0.00115234, cumulative = -0.912664
smoothSolver:  Solving for epsilon, Initial residual = 0.00307169, Final residual = 5.98789e-05, No Iterations 2
smoothSolver:  Solving for k, Initial residual = 0.0108384, Final residual = 0.000317413, No Iterations 2
ExecutionTime = 5.11 s  ClockTime = 5 s

fieldMinMax minMax write:
    min(mag(U)) = 0 in cell 522 at location (-0.0198086 0.0254 -1.47343e-21)
    max(mag(U)) = 7.9024 in cell 10824 at location (0.287428 -0.016557 1.90217e-20)

Time = 71

smoothSolver:  Solving for Ux, Initial residual = 0.00600118, Final residual = 0.000374404, No Iterations 2
smoothSolver:  Solving for Uy, Initial residual = 0.0129531, Final residual = 0.000830938, No Iterations 2
GAMG:  Solving for p, Initial residual = 0.0652514, Final residual = 0.00216457, No Iterations 4
time step continuity errors : sum local = 0.0101978, global = 0.00108846, cumulative = -0.911575
smoothSolver:  Solving for epsilon, Initial residual = 0.00302972, Final residual = 5.90943e-05, No Iterations 2
smoothSolver:  Solving for k, Initial residual = 0.0107256, Final residual = 0.000314622, No Iterations 2
ExecutionTime = 5.16 s  ClockTime = 5 s

fieldMinMax minMax write:
    min(mag(U)) = 0 in cell 522 at location (-0.0198086 0.0254 -1.47343e-21)
    max(mag(U)) = 7.89903 in cell 10824 at location (0.287428 -0.016557 1.90217e-20)

Time = 72

smoothSolver:  Solving for Ux, Initial residual = 0.00593082, Final residual = 0.000370199, No Iterations 2
smoothSolver:  Solving for Uy, Initial residual = 0.0128464, Final residual = 0.000824915, No Iterations 2
GAMG:  Solving for p, Initial residual = 0.063705, Final residual = 0.00211478, No Iterations 4
time step continuity errors : sum local = 0.00995381, global = 0.00103137, cumulative = -0.910544
smoothSolver:  Solving for epsilon, Initial residual = 0.00299778, Final residual = 5.84737e-05, No Iterations 2
smoothSolver:  Solving for k, Initial residual = 0.0106414, Final residual = 0.000313487, No Iterations 2
ExecutionTime = 5.22 s  ClockTime = 5 s

fieldMinMax minMax write:
    min(mag(U)) = 0 in cell 522 at location (-0.0198086 0.0254 -1.47343e-21)
    max(mag(U)) = 7.89563 in cell 10824 at location (0.287428 -0.016557 1.90217e-20)

Time = 73

smoothSolver:  Solving for Ux, Initial residual = 0.00586133, Final residual = 0.00036612, No Iterations 2
smoothSolver:  Solving for Uy, Initial residual = 0.0127498, Final residual = 0.000819635, No Iterations 2
GAMG:  Solving for p, Initial residual = 0.0626016, Final residual = 0.00204916, No Iterations 4
time step continuity errors : sum local = 0.00963429, global = 0.00104089, cumulative = -0.909503
smoothSolver:  Solving for epsilon, Initial residual = 0.00295899, Final residual = 5.78558e-05, No Iterations 2
smoothSolver:  Solving for k, Initial residual = 0.0105482, Final residual = 0.000312177, No Iterations 2
ExecutionTime = 5.27 s  ClockTime = 5 s

fieldMinMax minMax write:
    min(mag(U)) = 0 in cell 522 at location (-0.0198086 0.0254 -1.47343e-21)
    max(mag(U)) = 7.89223 in cell 10824 at location (0.287428 -0.016557 1.90217e-20)

Time = 74

smoothSolver:  Solving for Ux, Initial residual = 0.00579387, Final residual = 0.000362114, No Iterations 2
smoothSolver:  Solving for Uy, Initial residual = 0.0126653, Final residual = 0.00081512, No Iterations 2
GAMG:  Solving for p, Initial residual = 0.0618923, Final residual = 0.00201803, No Iterations 4
time step continuity errors : sum local = 0.00947705, global = 0.00111448, cumulative = -0.908388
smoothSolver:  Solving for epsilon, Initial residual = 0.00292108, Final residual = 5.71618e-05, No Iterations 2
smoothSolver:  Solving for k, Initial residual = 0.0104615, Final residual = 0.000310101, No Iterations 2
ExecutionTime = 5.32 s  ClockTime = 5 s

fieldMinMax minMax write:
    min(mag(U)) = 0 in cell 522 at location (-0.0198086 0.0254 -1.47343e-21)
    max(mag(U)) = 7.88882 in cell 10824 at location (0.287428 -0.016557 1.90217e-20)

Time = 75

smoothSolver:  Solving for Ux, Initial residual = 0.00572889, Final residual = 0.000358262, No Iterations 2
smoothSolver:  Solving for Uy, Initial residual = 0.0125856, Final residual = 0.000810545, No Iterations 2
GAMG:  Solving for p, Initial residual = 0.0605839, Final residual = 0.00203878, No Iterations 4
time step continuity errors : sum local = 0.00956356, global = 0.0012465, cumulative = -0.907142
smoothSolver:  Solving for epsilon, Initial residual = 0.00287871, Final residual = 5.63027e-05, No Iterations 2
smoothSolver:  Solving for k, Initial residual = 0.01039, Final residual = 0.000309196, No Iterations 2
ExecutionTime = 5.38 s  ClockTime = 5 s

fieldMinMax minMax write:
    min(mag(U)) = 0 in cell 522 at location (-0.0198086 0.0254 -1.47343e-21)
    max(mag(U)) = 7.88538 in cell 10824 at location (0.287428 -0.016557 1.90217e-20)

Time = 76

smoothSolver:  Solving for Ux, Initial residual = 0.00566534, Final residual = 0.000354536, No Iterations 2
smoothSolver:  Solving for Uy, Initial residual = 0.0125014, Final residual = 0.000806473, No Iterations 2
GAMG:  Solving for p, Initial residual = 0.0598683, Final residual = 0.00205874, No Iterations 4
time step continuity errors : sum local = 0.00964329, global = 0.00138286, cumulative = -0.905759
smoothSolver:  Solving for epsilon, Initial residual = 0.00286198, Final residual = 5.598e-05, No Iterations 2
smoothSolver:  Solving for k, Initial residual = 0.0102893, Final residual = 0.000307357, No Iterations 2
ExecutionTime = 5.43 s  ClockTime = 5 s

fieldMinMax minMax write:
    min(mag(U)) = 0 in cell 522 at location (-0.0198086 0.0254 -1.47343e-21)
    max(mag(U)) = 7.88182 in cell 10824 at location (0.287428 -0.016557 1.90217e-20)

Time = 77

smoothSolver:  Solving for Ux, Initial residual = 0.00560389, Final residual = 0.000350931, No Iterations 2
smoothSolver:  Solving for Uy, Initial residual = 0.0124239, Final residual = 0.000802313, No Iterations 2
GAMG:  Solving for p, Initial residual = 0.0597052, Final residual = 0.00218502, No Iterations 4
time step continuity errors : sum local = 0.0102182, global = 0.00145501, cumulative = -0.904304
smoothSolver:  Solving for epsilon, Initial residual = 0.00281938, Final residual = 5.51635e-05, No Iterations 2
smoothSolver:  Solving for k, Initial residual = 0.0102111, Final residual = 0.000305089, No Iterations 2
ExecutionTime = 5.48 s  ClockTime = 5 s

fieldMinMax minMax write:
    min(mag(U)) = 0 in cell 522 at location (-0.0198086 0.0254 -1.47343e-21)
    max(mag(U)) = 7.87806 in cell 10824 at location (0.287428 -0.016557 1.90217e-20)

Time = 78

smoothSolver:  Solving for Ux, Initial residual = 0.00554391, Final residual = 0.000347396, No Iterations 2
smoothSolver:  Solving for Uy, Initial residual = 0.0123475, Final residual = 0.000798566, No Iterations 2
GAMG:  Solving for p, Initial residual = 0.0589837, Final residual = 0.00202135, No Iterations 4
time step continuity errors : sum local = 0.00944051, global = 0.00145292, cumulative = -0.902851
smoothSolver:  Solving for epsilon, Initial residual = 0.00279845, Final residual = 5.46712e-05, No Iterations 2
smoothSolver:  Solving for k, Initial residual = 0.0101408, Final residual = 0.000303595, No Iterations 2
ExecutionTime = 5.54 s  ClockTime = 5 s

fieldMinMax minMax write:
    min(mag(U)) = 0 in cell 522 at location (-0.0198086 0.0254 -1.47343e-21)
    max(mag(U)) = 7.87405 in cell 10824 at location (0.287428 -0.016557 1.90217e-20)

Time = 79

smoothSolver:  Solving for Ux, Initial residual = 0.00548381, Final residual = 0.000343934, No Iterations 2
smoothSolver:  Solving for Uy, Initial residual = 0.0122839, Final residual = 0.000795526, No Iterations 2
GAMG:  Solving for p, Initial residual = 0.0577443, Final residual = 0.00198549, No Iterations 4
time step continuity errors : sum local = 0.00926438, global = 0.00141739, cumulative = -0.901434
smoothSolver:  Solving for epsilon, Initial residual = 0.00277221, Final residual = 5.42154e-05, No Iterations 2
smoothSolver:  Solving for k, Initial residual = 0.0100681, Final residual = 0.000302643, No Iterations 2
ExecutionTime = 5.58 s  ClockTime = 5 s

fieldMinMax minMax write:
    min(mag(U)) = 0 in cell 522 at location (-0.0198086 0.0254 -1.47343e-21)
    max(mag(U)) = 7.86984 in cell 10824 at location (0.287428 -0.016557 1.90217e-20)

Time = 80

smoothSolver:  Solving for Ux, Initial residual = 0.00542483, Final residual = 0.000340551, No Iterations 2
smoothSolver:  Solving for Uy, Initial residual = 0.0122252, Final residual = 0.000792519, No Iterations 2
GAMG:  Solving for p, Initial residual = 0.0573465, Final residual = 0.00208746, No Iterations 4
time step continuity errors : sum local = 0.00973028, global = 0.00139115, cumulative = -0.900043
smoothSolver:  Solving for epsilon, Initial residual = 0.00274543, Final residual = 5.38698e-05, No Iterations 2
smoothSolver:  Solving for k, Initial residual = 0.00999452, Final residual = 0.000300896, No Iterations 2
ExecutionTime = 5.64 s  ClockTime = 5 s

fieldMinMax minMax write:
    min(mag(U)) = 0 in cell 522 at location (-0.0198086 0.0254 -1.47343e-21)
    max(mag(U)) = 7.86545 in cell 10824 at location (0.287428 -0.016557 1.90217e-20)

Time = 81

smoothSolver:  Solving for Ux, Initial residual = 0.00536786, Final residual = 0.000337249, No Iterations 2
smoothSolver:  Solving for Uy, Initial residual = 0.0121695, Final residual = 0.000789357, No Iterations 2
GAMG:  Solving for p, Initial residual = 0.0569499, Final residual = 0.00202327, No Iterations 4
time step continuity errors : sum local = 0.00942276, global = 0.00125463, cumulative = -0.898788
smoothSolver:  Solving for epsilon, Initial residual = 0.00271818, Final residual = 5.33591e-05, No Iterations 2
smoothSolver:  Solving for k, Initial residual = 0.00992637, Final residual = 0.000299568, No Iterations 2
ExecutionTime = 5.69 s  ClockTime = 5 s

fieldMinMax minMax write:
    min(mag(U)) = 0 in cell 522 at location (-0.0198086 0.0254 -1.47343e-21)
    max(mag(U)) = 7.86084 in cell 10824 at location (0.287428 -0.016557 1.90217e-20)

Time = 82

smoothSolver:  Solving for Ux, Initial residual = 0.00531234, Final residual = 0.000334056, No Iterations 2
smoothSolver:  Solving for Uy, Initial residual = 0.0121189, Final residual = 0.000786538, No Iterations 2
GAMG:  Solving for p, Initial residual = 0.0558429, Final residual = 0.00194638, No Iterations 4
time step continuity errors : sum local = 0.00905587, global = 0.00104429, cumulative = -0.897744
smoothSolver:  Solving for epsilon, Initial residual = 0.00269713, Final residual = 5.29078e-05, No Iterations 2
smoothSolver:  Solving for k, Initial residual = 0.00985194, Final residual = 0.000297545, No Iterations 2
ExecutionTime = 5.74 s  ClockTime = 6 s

fieldMinMax minMax write:
    min(mag(U)) = 0 in cell 522 at location (-0.0198086 0.0254 -1.47343e-21)
    max(mag(U)) = 7.85594 in cell 10824 at location (0.287428 -0.016557 1.90217e-20)

Time = 83

smoothSolver:  Solving for Ux, Initial residual = 0.00525802, Final residual = 0.000330931, No Iterations 2
smoothSolver:  Solving for Uy, Initial residual = 0.0120791, Final residual = 0.000784627, No Iterations 2
GAMG:  Solving for p, Initial residual = 0.0557445, Final residual = 0.00188523, No Iterations 4
time step continuity errors : sum local = 0.00876229, global = 0.000889131, cumulative = -0.896855
smoothSolver:  Solving for epsilon, Initial residual = 0.00267716, Final residual = 5.26127e-05, No Iterations 2
smoothSolver:  Solving for k, Initial residual = 0.00979288, Final residual = 0.000296417, No Iterations 2
ExecutionTime = 5.8 s  ClockTime = 6 s

fieldMinMax minMax write:
    min(mag(U)) = 0 in cell 522 at location (-0.0198086 0.0254 -1.47343e-21)
    max(mag(U)) = 7.85077 in cell 10824 at location (0.287428 -0.016557 1.90217e-20)

Time = 84

smoothSolver:  Solving for Ux, Initial residual = 0.00520528, Final residual = 0.000327904, No Iterations 2
smoothSolver:  Solving for Uy, Initial residual = 0.0120429, Final residual = 0.000782793, No Iterations 2
GAMG:  Solving for p, Initial residual = 0.0559842, Final residual = 0.00184125, No Iterations 4
time step continuity errors : sum local = 0.00855378, global = 0.000841684, cumulative = -0.896013
smoothSolver:  Solving for epsilon, Initial residual = 0.00264824, Final residual = 5.20132e-05, No Iterations 2
smoothSolver:  Solving for k, Initial residual = 0.00972276, Final residual = 0.000294578, No Iterations 2
ExecutionTime = 5.85 s  ClockTime = 6 s

fieldMinMax minMax write:
    min(mag(U)) = 0 in cell 522 at location (-0.0198086 0.0254 -1.47343e-21)
    max(mag(U)) = 7.84538 in cell 10824 at location (0.287428 -0.016557 1.90217e-20)

Time = 85

smoothSolver:  Solving for Ux, Initial residual = 0.0051532, Final residual = 0.000324916, No Iterations 2
smoothSolver:  Solving for Uy, Initial residual = 0.0120073, Final residual = 0.000781059, No Iterations 2
GAMG:  Solving for p, Initial residual = 0.0547333, Final residual = 0.00183135, No Iterations 4
time step continuity errors : sum local = 0.00850501, global = 0.000866557, cumulative = -0.895146
smoothSolver:  Solving for epsilon, Initial residual = 0.00263327, Final residual = 5.18571e-05, No Iterations 2
smoothSolver:  Solving for k, Initial residual = 0.00966558, Final residual = 0.000293478, No Iterations 2
ExecutionTime = 5.9 s  ClockTime = 6 s

fieldMinMax minMax write:
    min(mag(U)) = 0 in cell 522 at location (-0.0198086 0.0254 -1.47343e-21)
    max(mag(U)) = 7.8398 in cell 10824 at location (0.287428 -0.016557 1.90217e-20)

Time = 86

smoothSolver:  Solving for Ux, Initial residual = 0.00510078, Final residual = 0.000321926, No Iterations 2
smoothSolver:  Solving for Uy, Initial residual = 0.011977, Final residual = 0.000779331, No Iterations 2
GAMG:  Solving for p, Initial residual = 0.0544077, Final residual = 0.00184662, No Iterations 4
time step continuity errors : sum local = 0.00856973, global = 0.000952704, cumulative = -0.894194
smoothSolver:  Solving for epsilon, Initial residual = 0.00261276, Final residual = 5.14609e-05, No Iterations 2
smoothSolver:  Solving for k, Initial residual = 0.00962063, Final residual = 0.000292583, No Iterations 2
ExecutionTime = 5.96 s  ClockTime = 6 s

fieldMinMax minMax write:
    min(mag(U)) = 0 in cell 522 at location (-0.0198086 0.0254 -1.47343e-21)
    max(mag(U)) = 7.83399 in cell 10824 at location (0.287428 -0.016557 1.90217e-20)

Time = 87

smoothSolver:  Solving for Ux, Initial residual = 0.00504908, Final residual = 0.000318975, No Iterations 2
smoothSolver:  Solving for Uy, Initial residual = 0.0119474, Final residual = 0.000777523, No Iterations 2
GAMG:  Solving for p, Initial residual = 0.0547582, Final residual = 0.00269952, No Iterations 3
time step continuity errors : sum local = 0.0125204, global = -0.000228734, cumulative = -0.894422
smoothSolver:  Solving for epsilon, Initial residual = 0.00259801, Final residual = 5.13495e-05, No Iterations 2
smoothSolver:  Solving for k, Initial residual = 0.0095879, Final residual = 0.000292503, No Iterations 2
ExecutionTime = 6.01 s  ClockTime = 6 s

fieldMinMax minMax write:
    min(mag(U)) = 0 in cell 522 at location (-0.0198086 0.0254 -1.47343e-21)
    max(mag(U)) = 7.82759 in cell 10824 at location (0.287428 -0.016557 1.90217e-20)

Time = 88

smoothSolver:  Solving for Ux, Initial residual = 0.00500122, Final residual = 0.000316343, No Iterations 2
smoothSolver:  Solving for Uy, Initial residual = 0.0119301, Final residual = 0.000777218, No Iterations 2
GAMG:  Solving for p, Initial residual = 0.0543694, Final residual = 0.00213628, No Iterations 4
time step continuity errors : sum local = 0.00991116, global = 0.00128127, cumulative = -0.893141
smoothSolver:  Solving for epsilon, Initial residual = 0.0025798, Final residual = 5.09777e-05, No Iterations 2
smoothSolver:  Solving for k, Initial residual = 0.00951618, Final residual = 0.000290241, No Iterations 2
ExecutionTime = 6.07 s  ClockTime = 6 s

fieldMinMax minMax write:
    min(mag(U)) = 0 in cell 522 at location (-0.0198086 0.0254 -1.47343e-21)
    max(mag(U)) = 7.821 in cell 10824 at location (0.287428 -0.016557 1.90217e-20)

Time = 89

smoothSolver:  Solving for Ux, Initial residual = 0.00494685, Final residual = 0.000313134, No Iterations 2
smoothSolver:  Solving for Uy, Initial residual = 0.0119007, Final residual = 0.000775031, No Iterations 2
GAMG:  Solving for p, Initial residual = 0.0539755, Final residual = 0.00195871, No Iterations 4
time step continuity errors : sum local = 0.00907127, global = 0.0011671, cumulative = -0.891974
smoothSolver:  Solving for epsilon, Initial residual = 0.00257215, Final residual = 5.05945e-05, No Iterations 2
smoothSolver:  Solving for k, Initial residual = 0.00947194, Final residual = 0.000289479, No Iterations 2
ExecutionTime = 6.11 s  ClockTime = 6 s

fieldMinMax minMax write:
    min(mag(U)) = 0 in cell 522 at location (-0.0198086 0.0254 -1.47343e-21)
    max(mag(U)) = 7.8144 in cell 10824 at location (0.287428 -0.016557 1.90217e-20)

Time = 90

smoothSolver:  Solving for Ux, Initial residual = 0.00489449, Final residual = 0.000310137, No Iterations 2
smoothSolver:  Solving for Uy, Initial residual = 0.0118858, Final residual = 0.00077411, No Iterations 2
GAMG:  Solving for p, Initial residual = 0.0540457, Final residual = 0.00266325, No Iterations 3
time step continuity errors : sum local = 0.0123201, global = -0.000229004, cumulative = -0.892203
smoothSolver:  Solving for epsilon, Initial residual = 0.00256303, Final residual = 5.0439e-05, No Iterations 2
smoothSolver:  Solving for k, Initial residual = 0.00941362, Final residual = 0.000287495, No Iterations 2
ExecutionTime = 6.17 s  ClockTime = 6 s

fieldMinMax minMax write:
    min(mag(U)) = 0 in cell 522 at location (-0.0198086 0.0254 -1.47343e-21)
    max(mag(U)) = 7.80707 in cell 10824 at location (0.287428 -0.016557 1.90217e-20)

Time = 91

smoothSolver:  Solving for Ux, Initial residual = 0.00484823, Final residual = 0.000307655, No Iterations 2
[...]
smoothSolver:  Solving for k, Initial residual = 0.000717149, Final residual = 3.4548e-05, No Iterations 2
ExecutionTime = 25.19 s  ClockTime = 25 s

fieldMinMax minMax write:
    min(mag(U)) = 0 in cell 522 at location (-0.0198086 0.0254 -1.47343e-21)
    max(mag(U)) = 6.62653 in cell 89 at location (-0.000395709 0.00162971 -5.03334e-21)

Time = 440

smoothSolver:  Solving for Ux, Initial residual = 0.000146237, Final residual = 1.03843e-05, No Iterations 2
smoothSolver:  Solving for Uy, Initial residual = 0.0014354, Final residual = 0.000108879, No Iterations 2
GAMG:  Solving for p, Initial residual = 0.00260558, Final residual = 0.000129257, No Iterations 9
time step continuity errors : sum local = 0.000400113, global = 4.92521e-06, cumulative = -0.896951
smoothSolver:  Solving for epsilon, Initial residual = 0.000132587, Final residual = 3.90479e-06, No Iterations 2
smoothSolver:  Solving for k, Initial residual = 0.000703594, Final residual = 3.39032e-05, No Iterations 2
ExecutionTime = 25.25 s  ClockTime = 25 s

fieldMinMax minMax write:
    min(mag(U)) = 0 in cell 522 at location (-0.0198086 0.0254 -1.47343e-21)
    max(mag(U)) = 6.62653 in cell 89 at location (-0.000395709 0.00162971 -5.03334e-21)

Time = 441

smoothSolver:  Solving for Ux, Initial residual = 0.000144396, Final residual = 1.02579e-05, No Iterations 2
smoothSolver:  Solving for Uy, Initial residual = 0.00141591, Final residual = 0.00010747, No Iterations 2
GAMG:  Solving for p, Initial residual = 0.00255883, Final residual = 0.000115209, No Iterations 10
time step continuity errors : sum local = 0.000356521, global = -2.49565e-06, cumulative = -0.896953
smoothSolver:  Solving for epsilon, Initial residual = 0.000130087, Final residual = 3.84673e-06, No Iterations 2
smoothSolver:  Solving for k, Initial residual = 0.000689844, Final residual = 3.3138e-05, No Iterations 2
ExecutionTime = 25.3 s  ClockTime = 25 s

fieldMinMax minMax write:
    min(mag(U)) = 0 in cell 522 at location (-0.0198086 0.0254 -1.47343e-21)
    max(mag(U)) = 6.62653 in cell 89 at location (-0.000395709 0.00162971 -5.03334e-21)

Time = 442

smoothSolver:  Solving for Ux, Initial residual = 0.000142535, Final residual = 1.01366e-05, No Iterations 2
smoothSolver:  Solving for Uy, Initial residual = 0.00139639, Final residual = 0.000106034, No Iterations 2
GAMG:  Solving for p, Initial residual = 0.00252909, Final residual = 0.000125997, No Iterations 9
time step continuity errors : sum local = 0.000389766, global = 4.28406e-06, cumulative = -0.896949
smoothSolver:  Solving for epsilon, Initial residual = 0.000127806, Final residual = 3.75329e-06, No Iterations 2
smoothSolver:  Solving for k, Initial residual = 0.000676543, Final residual = 3.25596e-05, No Iterations 2
ExecutionTime = 25.36 s  ClockTime = 25 s

fieldMinMax minMax write:
    min(mag(U)) = 0 in cell 522 at location (-0.0198086 0.0254 -1.47343e-21)
    max(mag(U)) = 6.62653 in cell 89 at location (-0.000395709 0.00162971 -5.03334e-21)

Time = 443

smoothSolver:  Solving for Ux, Initial residual = 0.000140656, Final residual = 1.00184e-05, No Iterations 2
smoothSolver:  Solving for Uy, Initial residual = 0.00137625, Final residual = 0.000104556, No Iterations 2
GAMG:  Solving for p, Initial residual = 0.00248288, Final residual = 0.000112882, No Iterations 10
time step continuity errors : sum local = 0.000349085, global = -1.34153e-06, cumulative = -0.89695
smoothSolver:  Solving for epsilon, Initial residual = 0.000125325, Final residual = 3.69224e-06, No Iterations 2
smoothSolver:  Solving for k, Initial residual = 0.000663029, Final residual = 3.19179e-05, No Iterations 2
ExecutionTime = 25.42 s  ClockTime = 25 s

fieldMinMax minMax write:
    min(mag(U)) = 0 in cell 522 at location (-0.0198086 0.0254 -1.47343e-21)
    max(mag(U)) = 6.62653 in cell 89 at location (-0.000395709 0.00162971 -5.03334e-21)

Time = 444

smoothSolver:  Solving for Ux, Initial residual = 0.000138862, Final residual = 9.89535e-06, No Iterations 2
smoothSolver:  Solving for Uy, Initial residual = 0.00135623, Final residual = 0.000103006, No Iterations 2
GAMG:  Solving for p, Initial residual = 0.00244502, Final residual = 0.000111804, No Iterations 10
time step continuity errors : sum local = 0.000345624, global = -1.39433e-06, cumulative = -0.896952
smoothSolver:  Solving for epsilon, Initial residual = 0.000123037, Final residual = 3.6154e-06, No Iterations 2
smoothSolver:  Solving for k, Initial residual = 0.0006501, Final residual = 3.13384e-05, No Iterations 2
ExecutionTime = 25.48 s  ClockTime = 25 s

fieldMinMax minMax write:
    min(mag(U)) = 0 in cell 522 at location (-0.0198086 0.0254 -1.47343e-21)
    max(mag(U)) = 6.62653 in cell 89 at location (-0.000395709 0.00162971 -5.03334e-21)

Time = 445

smoothSolver:  Solving for Ux, Initial residual = 0.000137077, Final residual = 9.77315e-06, No Iterations 2
smoothSolver:  Solving for Uy, Initial residual = 0.00133603, Final residual = 0.00010143, No Iterations 2
GAMG:  Solving for p, Initial residual = 0.00239362, Final residual = 0.000110664, No Iterations 10
time step continuity errors : sum local = 0.000341982, global = -1.67143e-06, cumulative = -0.896954
smoothSolver:  Solving for epsilon, Initial residual = 0.000120647, Final residual = 3.54742e-06, No Iterations 2
smoothSolver:  Solving for k, Initial residual = 0.000636765, Final residual = 3.05875e-05, No Iterations 2
ExecutionTime = 25.54 s  ClockTime = 25 s

fieldMinMax minMax write:
    min(mag(U)) = 0 in cell 522 at location (-0.0198086 0.0254 -1.47343e-21)
    max(mag(U)) = 6.62653 in cell 89 at location (-0.000395709 0.00162971 -5.03334e-21)

Time = 446

smoothSolver:  Solving for Ux, Initial residual = 0.000135268, Final residual = 9.65701e-06, No Iterations 2
smoothSolver:  Solving for Uy, Initial residual = 0.00131562, Final residual = 9.98207e-05, No Iterations 2
GAMG:  Solving for p, Initial residual = 0.00235564, Final residual = 0.000109726, No Iterations 10
time step continuity errors : sum local = 0.000338954, global = -2.01479e-06, cumulative = -0.896956
smoothSolver:  Solving for epsilon, Initial residual = 0.000118353, Final residual = 3.47966e-06, No Iterations 2
smoothSolver:  Solving for k, Initial residual = 0.000624092, Final residual = 3.00132e-05, No Iterations 2
ExecutionTime = 25.6 s  ClockTime = 25 s

fieldMinMax minMax write:
    min(mag(U)) = 0 in cell 522 at location (-0.0198086 0.0254 -1.47343e-21)
    max(mag(U)) = 6.62653 in cell 89 at location (-0.000395709 0.00162971 -5.03334e-21)

Time = 447

smoothSolver:  Solving for Ux, Initial residual = 0.000133458, Final residual = 9.54357e-06, No Iterations 2
smoothSolver:  Solving for Uy, Initial residual = 0.00129524, Final residual = 9.81637e-05, No Iterations 2
GAMG:  Solving for p, Initial residual = 0.00231624, Final residual = 0.000108971, No Iterations 10
time step continuity errors : sum local = 0.000336504, global = -2.33222e-06, cumulative = -0.896958
smoothSolver:  Solving for epsilon, Initial residual = 0.000115993, Final residual = 3.41469e-06, No Iterations 2
smoothSolver:  Solving for k, Initial residual = 0.000611634, Final residual = 2.95083e-05, No Iterations 2
ExecutionTime = 25.66 s  ClockTime = 26 s

fieldMinMax minMax write:
    min(mag(U)) = 0 in cell 522 at location (-0.0198086 0.0254 -1.47343e-21)
    max(mag(U)) = 6.62653 in cell 89 at location (-0.000395709 0.00162971 -5.03334e-21)

Time = 448

smoothSolver:  Solving for Ux, Initial residual = 0.000131713, Final residual = 9.42818e-06, No Iterations 2
smoothSolver:  Solving for Uy, Initial residual = 0.00127451, Final residual = 9.64556e-05, No Iterations 2
GAMG:  Solving for p, Initial residual = 0.00228249, Final residual = 0.000108316, No Iterations 10
time step continuity errors : sum local = 0.000334354, global = -2.45126e-06, cumulative = -0.89696
smoothSolver:  Solving for epsilon, Initial residual = 0.000113802, Final residual = 3.352e-06, No Iterations 2
smoothSolver:  Solving for k, Initial residual = 0.000599119, Final residual = 2.8889e-05, No Iterations 2
ExecutionTime = 25.72 s  ClockTime = 26 s

fieldMinMax minMax write:
    min(mag(U)) = 0 in cell 522 at location (-0.0198086 0.0254 -1.47343e-21)
    max(mag(U)) = 6.62653 in cell 89 at location (-0.000395709 0.00162971 -5.03334e-21)

Time = 449

smoothSolver:  Solving for Ux, Initial residual = 0.000129999, Final residual = 9.3124e-06, No Iterations 2
smoothSolver:  Solving for Uy, Initial residual = 0.00125333, Final residual = 9.47463e-05, No Iterations 2
GAMG:  Solving for p, Initial residual = 0.00224304, Final residual = 0.00010738, No Iterations 10
time step continuity errors : sum local = 0.000331349, global = -2.466e-06, cumulative = -0.896963
smoothSolver:  Solving for epsilon, Initial residual = 0.000111452, Final residual = 3.28003e-06, No Iterations 2
smoothSolver:  Solving for k, Initial residual = 0.000586859, Final residual = 2.82345e-05, No Iterations 2
ExecutionTime = 25.77 s  ClockTime = 26 s

fieldMinMax minMax write:
    min(mag(U)) = 0 in cell 522 at location (-0.0198086 0.0254 -1.47343e-21)
    max(mag(U)) = 6.62653 in cell 89 at location (-0.000395709 0.00162971 -5.03334e-21)

Time = 450

smoothSolver:  Solving for Ux, Initial residual = 0.000128278, Final residual = 9.20018e-06, No Iterations 2
smoothSolver:  Solving for Uy, Initial residual = 0.0012317, Final residual = 9.29959e-05, No Iterations 2
GAMG:  Solving for p, Initial residual = 0.00221607, Final residual = 0.000106195, No Iterations 10
time step continuity errors : sum local = 0.000327568, global = -2.3995e-06, cumulative = -0.896965
smoothSolver:  Solving for epsilon, Initial residual = 0.000109264, Final residual = 3.20555e-06, No Iterations 2
smoothSolver:  Solving for k, Initial residual = 0.000574831, Final residual = 2.77636e-05, No Iterations 2
ExecutionTime = 25.83 s  ClockTime = 26 s

fieldMinMax minMax write:
    min(mag(U)) = 0 in cell 522 at location (-0.0198086 0.0254 -1.47343e-21)
    max(mag(U)) = 6.62653 in cell 89 at location (-0.000395709 0.00162971 -5.03334e-21)

Time = 451

smoothSolver:  Solving for Ux, Initial residual = 0.000126546, Final residual = 9.09312e-06, No Iterations 2
smoothSolver:  Solving for Uy, Initial residual = 0.00120998, Final residual = 9.12021e-05, No Iterations 2
GAMG:  Solving for p, Initial residual = 0.00217405, Final residual = 0.000105048, No Iterations 10
time step continuity errors : sum local = 0.000323923, global = -2.67321e-06, cumulative = -0.896968
smoothSolver:  Solving for epsilon, Initial residual = 0.000106995, Final residual = 3.12693e-06, No Iterations 2
smoothSolver:  Solving for k, Initial residual = 0.000562982, Final residual = 2.72106e-05, No Iterations 2
ExecutionTime = 25.89 s  ClockTime = 26 s

fieldMinMax minMax write:
    min(mag(U)) = 0 in cell 522 at location (-0.0198086 0.0254 -1.47343e-21)
    max(mag(U)) = 6.62653 in cell 89 at location (-0.000395709 0.00162971 -5.03334e-21)

Time = 452

smoothSolver:  Solving for Ux, Initial residual = 0.000124868, Final residual = 8.98414e-06, No Iterations 2
smoothSolver:  Solving for Uy, Initial residual = 0.00118777, Final residual = 8.93816e-05, No Iterations 2
GAMG:  Solving for p, Initial residual = 0.00213953, Final residual = 0.000103371, No Iterations 10
time step continuity errors : sum local = 0.000318637, global = -2.54173e-06, cumulative = -0.89697
smoothSolver:  Solving for epsilon, Initial residual = 0.000104862, Final residual = 3.05979e-06, No Iterations 2
smoothSolver:  Solving for k, Initial residual = 0.00055144, Final residual = 2.667e-05, No Iterations 2
ExecutionTime = 25.95 s  ClockTime = 26 s

fieldMinMax minMax write:
    min(mag(U)) = 0 in cell 522 at location (-0.0198086 0.0254 -1.47343e-21)
    max(mag(U)) = 6.62653 in cell 89 at location (-0.000395709 0.00162971 -5.03334e-21)

Time = 453

smoothSolver:  Solving for Ux, Initial residual = 0.000123269, Final residual = 8.87535e-06, No Iterations 2
smoothSolver:  Solving for Uy, Initial residual = 0.00116507, Final residual = 8.75519e-05, No Iterations 2
GAMG:  Solving for p, Initial residual = 0.00209823, Final residual = 0.000101492, No Iterations 10
time step continuity errors : sum local = 0.000312753, global = -2.33552e-06, cumulative = -0.896973
smoothSolver:  Solving for epsilon, Initial residual = 0.000102619, Final residual = 2.993e-06, No Iterations 2
smoothSolver:  Solving for k, Initial residual = 0.000539756, Final residual = 2.61299e-05, No Iterations 2
ExecutionTime = 26.01 s  ClockTime = 26 s

fieldMinMax minMax write:
    min(mag(U)) = 0 in cell 522 at location (-0.0198086 0.0254 -1.47343e-21)
    max(mag(U)) = 6.62653 in cell 89 at location (-0.000395709 0.00162971 -5.03334e-21)

Time = 454

smoothSolver:  Solving for Ux, Initial residual = 0.000121635, Final residual = 8.76743e-06, No Iterations 2
smoothSolver:  Solving for Uy, Initial residual = 0.00114223, Final residual = 8.56879e-05, No Iterations 2
GAMG:  Solving for p, Initial residual = 0.00206924, Final residual = 9.95213e-05, No Iterations 10
time step continuity errors : sum local = 0.000306577, global = -2.01794e-06, cumulative = -0.896975
smoothSolver:  Solving for epsilon, Initial residual = 0.000100547, Final residual = 2.92003e-06, No Iterations 2
smoothSolver:  Solving for k, Initial residual = 0.00052814, Final residual = 2.55311e-05, No Iterations 2
ExecutionTime = 26.07 s  ClockTime = 26 s

fieldMinMax minMax write:
    min(mag(U)) = 0 in cell 522 at location (-0.0198086 0.0254 -1.47343e-21)
    max(mag(U)) = 6.62653 in cell 89 at location (-0.000395709 0.00162971 -5.03334e-21)

Time = 455

smoothSolver:  Solving for Ux, Initial residual = 0.000119993, Final residual = 8.66671e-06, No Iterations 2
smoothSolver:  Solving for Uy, Initial residual = 0.00111934, Final residual = 8.37873e-05, No Iterations 2
GAMG:  Solving for p, Initial residual = 0.00202978, Final residual = 9.80607e-05, No Iterations 10
time step continuity errors : sum local = 0.000301991, global = -2.2272e-06, cumulative = -0.896977
smoothSolver:  Solving for epsilon, Initial residual = 9.83393e-05, Final residual = 2.86661e-06, No Iterations 2
smoothSolver:  Solving for k, Initial residual = 0.000516985, Final residual = 2.50411e-05, No Iterations 2
ExecutionTime = 26.13 s  ClockTime = 26 s

fieldMinMax minMax write:
    min(mag(U)) = 0 in cell 522 at location (-0.0198086 0.0254 -1.47343e-21)
    max(mag(U)) = 6.62653 in cell 89 at location (-0.000395709 0.00162971 -5.03334e-21)

Time = 456

smoothSolver:  Solving for Ux, Initial residual = 0.00011837, Final residual = 8.56626e-06, No Iterations 2
smoothSolver:  Solving for Uy, Initial residual = 0.00109594, Final residual = 8.18946e-05, No Iterations 2
GAMG:  Solving for p, Initial residual = 0.00199989, Final residual = 9.63711e-05, No Iterations 10
time step continuity errors : sum local = 0.000296692, global = -2.28716e-06, cumulative = -0.896979
smoothSolver:  Solving for epsilon, Initial residual = 9.63422e-05, Final residual = 2.78995e-06, No Iterations 2
smoothSolver:  Solving for k, Initial residual = 0.00050579, Final residual = 2.45235e-05, No Iterations 2
ExecutionTime = 26.19 s  ClockTime = 26 s

fieldMinMax minMax write:
    min(mag(U)) = 0 in cell 522 at location (-0.0198086 0.0254 -1.47343e-21)
    max(mag(U)) = 6.62653 in cell 89 at location (-0.000395709 0.00162971 -5.03334e-21)

Time = 457

smoothSolver:  Solving for Ux, Initial residual = 0.000116817, Final residual = 8.46564e-06, No Iterations 2
smoothSolver:  Solving for Uy, Initial residual = 0.00107215, Final residual = 7.99891e-05, No Iterations 2
GAMG:  Solving for p, Initial residual = 0.00196435, Final residual = 9.46818e-05, No Iterations 10
time step continuity errors : sum local = 0.000291411, global = -2.48327e-06, cumulative = -0.896982
smoothSolver:  Solving for epsilon, Initial residual = 9.42051e-05, Final residual = 2.7267e-06, No Iterations 2
smoothSolver:  Solving for k, Initial residual = 0.00049487, Final residual = 2.39531e-05, No Iterations 2
ExecutionTime = 26.26 s  ClockTime = 26 s

fieldMinMax minMax write:
    min(mag(U)) = 0 in cell 522 at location (-0.0198086 0.0254 -1.47343e-21)
    max(mag(U)) = 6.62653 in cell 89 at location (-0.000395709 0.00162971 -5.03334e-21)

Time = 458

smoothSolver:  Solving for Ux, Initial residual = 0.000115292, Final residual = 8.36498e-06, No Iterations 2
smoothSolver:  Solving for Uy, Initial residual = 0.00104848, Final residual = 7.80624e-05, No Iterations 2
GAMG:  Solving for p, Initial residual = 0.00193899, Final residual = 9.27991e-05, No Iterations 10
time step continuity errors : sum local = 0.000285528, global = -2.67039e-06, cumulative = -0.896984
smoothSolver:  Solving for epsilon, Initial residual = 9.21919e-05, Final residual = 2.65937e-06, No Iterations 2
smoothSolver:  Solving for k, Initial residual = 0.000484048, Final residual = 2.34761e-05, No Iterations 2
ExecutionTime = 26.31 s  ClockTime = 26 s

fieldMinMax minMax write:
    min(mag(U)) = 0 in cell 522 at location (-0.0198086 0.0254 -1.47343e-21)
    max(mag(U)) = 6.62653 in cell 89 at location (-0.000395709 0.00162971 -5.03334e-21)

Time = 459

smoothSolver:  Solving for Ux, Initial residual = 0.000113769, Final residual = 8.26963e-06, No Iterations 2
smoothSolver:  Solving for Uy, Initial residual = 0.00102467, Final residual = 7.61121e-05, No Iterations 2
GAMG:  Solving for p, Initial residual = 0.00190048, Final residual = 9.11289e-05, No Iterations 10
time step continuity errors : sum local = 0.000280317, global = -3.27804e-06, cumulative = -0.896988
smoothSolver:  Solving for epsilon, Initial residual = 9.01474e-05, Final residual = 2.59704e-06, No Iterations 2
smoothSolver:  Solving for k, Initial residual = 0.000473334, Final residual = 2.29338e-05, No Iterations 2
ExecutionTime = 26.37 s  ClockTime = 26 s

fieldMinMax minMax write:
    min(mag(U)) = 0 in cell 522 at location (-0.0198086 0.0254 -1.47343e-21)
    max(mag(U)) = 6.62653 in cell 89 at location (-0.000395709 0.00162971 -5.03334e-21)

Time = 460

smoothSolver:  Solving for Ux, Initial residual = 0.00011225, Final residual = 8.17813e-06, No Iterations 2
smoothSolver:  Solving for Uy, Initial residual = 0.00100057, Final residual = 7.4184e-05, No Iterations 2
GAMG:  Solving for p, Initial residual = 0.00186836, Final residual = 8.78396e-05, No Iterations 10
time step continuity errors : sum local = 0.000270121, global = -2.28074e-06, cumulative = -0.89699
smoothSolver:  Solving for epsilon, Initial residual = 8.82509e-05, Final residual = 2.535e-06, No Iterations 2
smoothSolver:  Solving for k, Initial residual = 0.000462667, Final residual = 2.24281e-05, No Iterations 2
ExecutionTime = 26.43 s  ClockTime = 26 s

fieldMinMax minMax write:
    min(mag(U)) = 0 in cell 522 at location (-0.0198086 0.0254 -1.47343e-21)
    max(mag(U)) = 6.62653 in cell 89 at location (-0.000395709 0.00162971 -5.03334e-21)

Time = 461

smoothSolver:  Solving for Ux, Initial residual = 0.000110794, Final residual = 8.08377e-06, No Iterations 2
smoothSolver:  Solving for Uy, Initial residual = 0.000976235, Final residual = 7.2253e-05, No Iterations 2
GAMG:  Solving for p, Initial residual = 0.0018233, Final residual = 8.32844e-05, No Iterations 10
time step continuity errors : sum local = 0.000256053, global = -2.84042e-07, cumulative = -0.89699
smoothSolver:  Solving for epsilon, Initial residual = 8.6235e-05, Final residual = 2.47175e-06, No Iterations 2
smoothSolver:  Solving for k, Initial residual = 0.000452268, Final residual = 2.19944e-05, No Iterations 2
ExecutionTime = 26.49 s  ClockTime = 26 s


SIMPLE solution converged in 461 iterations

streamLine streamlines write:
    seeded 10 particles
    Tracks:10
    Total samples:10770
fieldMinMax minMax write:
    min(mag(U)) = 0 in cell 522 at location (-0.0198086 0.0254 -1.47343e-21)
    max(mag(U)) = 6.62653 in cell 89 at location (-0.000395709 0.00162971 -5.03334e-21)

End

