/*---------------------------------------------------------------------------*\
| =========                 |                                                 |
| \\      /  F ield         | OpenFOAM: The Open Source CFD Toolbox           |
|  \\    /   O peration     | Version:  2312                                  |
|   \\  /    A nd           | Website:  www.openfoam.com                      |
|    \\/     M anipulation  |                                                 |
\*---------------------------------------------------------------------------*/
Build  : _1d8f0d55f7-20231221 OPENFOAM=2312 version=v2312
Arch   : "LSB;label=32;scalar=64"
Exec   : pimpleFoam
Date   : Mar 05 2024
Time   : 13:15:33
Host   : popeye03
PID    : 1763353
I/O    : uncollated
Case   : /home/user03/OpenFOAM/user03-v2312/run/TJunction
nProcs : 1
trapFpe: Floating point exception trapping enabled (FOAM_SIGFPE).
fileModificationChecking : Monitoring run-time modified files using timeStampMaster (fileModificationSkew 5, maxFileModificationPolls 20)
allowSystemOperations : Allowing user-supplied system call operations

// * * * * * * * * * * * * * * * * * * * * * * * * * * * * * * * * * * * * * //
Create time

Create mesh for time = 0


PIMPLE: no residual control data found. Calculations will employ 2 corrector loops

Reading field p

Reading field U

Reading/calculating face flux field phi

Selecting incompressible transport model Newtonian
Selecting turbulence model type RAS
Selecting RAS turbulence model kEpsilon
RAS
{
    RASModel        kEpsilon;
    turbulence      on;
    printCoeffs     on;
    Cmu             0.09;
    C1              1.44;
    C2              1.92;
    C3              0;
    sigmak          1;
    sigmaEps        1.3;
}

No MRF models present

No finite volume options present
Courant Number mean: 0 max: 0
Courant Number mean: 0 max: 0

Starting time loop

Selecting finite volume options type scalarSemiImplicitSource
    Source: unitySource
    - selecting all cells
    - selected 3875 cell(s) with volume 0.000248
Courant Number mean: 0 max: 0
deltaT = 0.00120482
Time = 0.00120482

PIMPLE: iteration 1
smoothSolver:  Solving for Ux, Initial residual = 1, Final residual = 1.96401e-05, No Iterations 1
smoothSolver:  Solving for Uy, Initial residual = 1, Final residual = 1.96401e-05, No Iterations 1
smoothSolver:  Solving for Uz, Initial residual = 0, Final residual = 0, No Iterations 0
GAMG:  Solving for p, Initial residual = 1, Final residual = 0.00324045, No Iterations 2
time step continuity errors : sum local = 7.5298e-05, global = -1.61312e-05, cumulative = -1.61312e-05
GAMG:  Solving for p, Initial residual = 0.00482053, Final residual = 7.62941e-07, No Iterations 10
time step continuity errors : sum local = 2.40387e-08, global = 3.4025e-09, cumulative = -1.61278e-05
PIMPLE: iteration 2
smoothSolver:  Solving for Ux, Initial residual = 0.000714364, Final residual = 3.19597e-08, No Iterations 1
smoothSolver:  Solving for Uy, Initial residual = 0.000886612, Final residual = 3.53372e-08, No Iterations 1
smoothSolver:  Solving for Uz, Initial residual = 0.838246, Final residual = 1.77673e-09, No Iterations 2
GAMG:  Solving for p, Initial residual = 6.00295e-05, Final residual = 6.89512e-07, No Iterations 5
time step continuity errors : sum local = 2.10264e-08, global = 4.61238e-09, cumulative = -1.61232e-05
GAMG:  Solving for p, Initial residual = 1.03533e-06, Final residual = 2.3497e-07, No Iterations 1
time step continuity errors : sum local = 7.16681e-09, global = 4.00364e-09, cumulative = -1.61192e-05
smoothSolver:  Solving for epsilon, Initial residual = 0.620748, Final residual = 1.21857e-06, No Iterations 1
smoothSolver:  Solving for k, Initial residual = 1, Final residual = 5.17564e-10, No Iterations 2
ExecutionTime = 0.19 s  ClockTime = 0 s

scalarTransport execute: s
smoothSolver:  Solving for s, Initial residual = 1, Final residual = 0.000576745, No Iterations 1

Courant Number mean: 0.00787162 max: 0.0212564
deltaT = 0.00145287
Time = 0.00265769

PIMPLE: iteration 1
smoothSolver:  Solving for Ux, Initial residual = 0.320585, Final residual = 0.000270522, No Iterations 1
smoothSolver:  Solving for Uy, Initial residual = 0.485029, Final residual = 0.00040313, No Iterations 1
smoothSolver:  Solving for Uz, Initial residual = 0.87689, Final residual = 0.000542827, No Iterations 1
GAMG:  Solving for p, Initial residual = 0.00176209, Final residual = 1.65296e-05, No Iterations 2
time step continuity errors : sum local = 7.10782e-07, global = -8.447e-08, cumulative = -1.62036e-05
GAMG:  Solving for p, Initial residual = 2.01061e-05, Final residual = 5.62615e-07, No Iterations 4
time step continuity errors : sum local = 2.42106e-08, global = -3.72569e-09, cumulative = -1.62074e-05
PIMPLE: iteration 2
smoothSolver:  Solving for Ux, Initial residual = 0.000267402, Final residual = 2.38291e-07, No Iterations 1
smoothSolver:  Solving for Uy, Initial residual = 0.000216122, Final residual = 1.54739e-07, No Iterations 1
smoothSolver:  Solving for Uz, Initial residual = 0.289809, Final residual = 2.14892e-07, No Iterations 2
GAMG:  Solving for p, Initial residual = 0.000103602, Final residual = 1.02459e-06, No Iterations 4
time step continuity errors : sum local = 4.3561e-08, global = 8.83332e-09, cumulative = -1.61985e-05
GAMG:  Solving for p, Initial residual = 4.57547e-06, Final residual = 3.37853e-07, No Iterations 2
time step continuity errors : sum local = 1.43648e-08, global = 1.84928e-09, cumulative = -1.61967e-05
smoothSolver:  Solving for epsilon, Initial residual = 0.483116, Final residual = 6.63947e-10, No Iterations 2
smoothSolver:  Solving for k, Initial residual = 0.586283, Final residual = 4.39871e-07, No Iterations 2
ExecutionTime = 0.24 s  ClockTime = 0 s

scalarTransport execute: s
smoothSolver:  Solving for s, Initial residual = 0.999723, Final residual = 0.0010152, No Iterations 1

Courant Number mean: 0.0209066 max: 0.0563387
deltaT = 0.00173826
Time = 0.00439595

PIMPLE: iteration 1
smoothSolver:  Solving for Ux, Initial residual = 0.203209, Final residual = 0.000211067, No Iterations 1
smoothSolver:  Solving for Uy, Initial residual = 0.336099, Final residual = 0.000318086, No Iterations 1
smoothSolver:  Solving for Uz, Initial residual = 0.296552, Final residual = 0.000268811, No Iterations 1
GAMG:  Solving for p, Initial residual = 0.00195995, Final residual = 8.46429e-06, No Iterations 3
time step continuity errors : sum local = 5.07054e-07, global = 1.20075e-07, cumulative = -1.60766e-05
GAMG:  Solving for p, Initial residual = 1.6869e-05, Final residual = 6.60372e-07, No Iterations 3
time step continuity errors : sum local = 3.95902e-08, global = -9.66636e-09, cumulative = -1.60863e-05
PIMPLE: iteration 2
smoothSolver:  Solving for Ux, Initial residual = 0.000425582, Final residual = 5.29347e-07, No Iterations 1
smoothSolver:  Solving for Uy, Initial residual = 0.000269689, Final residual = 2.51728e-07, No Iterations 1
smoothSolver:  Solving for Uz, Initial residual = 0.0896911, Final residual = 8.08639e-08, No Iterations 2
GAMG:  Solving for p, Initial residual = 0.000215816, Final residual = 1.15742e-06, No Iterations 5
time step continuity errors : sum local = 6.8636e-08, global = -1.07603e-08, cumulative = -1.6097e-05
GAMG:  Solving for p, Initial residual = 1.35621e-05, Final residual = 3.63246e-07, No Iterations 3
time step continuity errors : sum local = 2.15431e-08, global = 6.52825e-09, cumulative = -1.60905e-05
smoothSolver:  Solving for epsilon, Initial residual = 0.468291, Final residual = 9.13841e-09, No Iterations 2
smoothSolver:  Solving for k, Initial residual = 0.472669, Final residual = 8.42724e-07, No Iterations 2
ExecutionTime = 0.3 s  ClockTime = 0 s

scalarTransport execute: s
smoothSolver:  Solving for s, Initial residual = 0.998555, Final residual = 0.00151828, No Iterations 1

Courant Number mean: 0.0412987 max: 0.110947
deltaT = 0.00207835
Time = 0.00647429

PIMPLE: iteration 1
smoothSolver:  Solving for Ux, Initial residual = 0.155622, Final residual = 0.000198035, No Iterations 1
smoothSolver:  Solving for Uy, Initial residual = 0.266547, Final residual = 0.000295251, No Iterations 1
smoothSolver:  Solving for Uz, Initial residual = 0.232313, Final residual = 0.000275125, No Iterations 1
GAMG:  Solving for p, Initial residual = 0.00236122, Final residual = 1.21788e-05, No Iterations 3
time step continuity errors : sum local = 1.01735e-06, global = 2.41032e-07, cumulative = -1.58495e-05
GAMG:  Solving for p, Initial residual = 3.4206e-05, Final residual = 7.67631e-07, No Iterations 4
time step continuity errors : sum local = 6.41833e-08, global = 1.97592e-08, cumulative = -1.58297e-05
PIMPLE: iteration 2
smoothSolver:  Solving for Ux, Initial residual = 0.000531904, Final residual = 9.37388e-07, No Iterations 1
smoothSolver:  Solving for Uy, Initial residual = 0.000380499, Final residual = 5.98577e-07, No Iterations 1
smoothSolver:  Solving for Uz, Initial residual = 0.0709834, Final residual = 2.15536e-07, No Iterations 2
GAMG:  Solving for p, Initial residual = 0.000343274, Final residual = 2.03735e-06, No Iterations 5
time step continuity errors : sum local = 1.65858e-07, global = -2.10422e-08, cumulative = -1.58508e-05
GAMG:  Solving for p, Initial residual = 3.13613e-05, Final residual = 4.56577e-07, No Iterations 4
time step continuity errors : sum local = 3.71766e-08, global = -4.31084e-09, cumulative = -1.58551e-05
smoothSolver:  Solving for epsilon, Initial residual = 0.53754, Final residual = 1.03303e-07, No Iterations 2
smoothSolver:  Solving for k, Initial residual = 0.431751, Final residual = 1.73246e-06, No Iterations 2
ExecutionTime = 0.35 s  ClockTime = 0 s

scalarTransport execute: s
smoothSolver:  Solving for s, Initial residual = 0.996347, Final residual = 0.00257507, No Iterations 1

Courant Number mean: 0.0725713 max: 0.194104
deltaT = 0.0024612
Time = 0.0089355

PIMPLE: iteration 1
smoothSolver:  Solving for Ux, Initial residual = 0.129128, Final residual = 0.000141371, No Iterations 1
smoothSolver:  Solving for Uy, Initial residual = 0.224792, Final residual = 0.000475754, No Iterations 1
smoothSolver:  Solving for Uz, Initial residual = 0.193812, Final residual = 0.000362983, No Iterations 1
GAMG:  Solving for p, Initial residual = 0.00278038, Final residual = 1.91591e-05, No Iterations 3
time step continuity errors : sum local = 2.1606e-06, global = 5.9006e-07, cumulative = -1.5265e-05
GAMG:  Solving for p, Initial residual = 7.83126e-05, Final residual = 7.7908e-07, No Iterations 5
time step continuity errors : sum local = 8.79547e-08, global = -2.02635e-08, cumulative = -1.52853e-05
PIMPLE: iteration 2
smoothSolver:  Solving for Ux, Initial residual = 0.000741755, Final residual = 2.21121e-06, No Iterations 1
smoothSolver:  Solving for Uy, Initial residual = 0.000524388, Final residual = 1.85971e-06, No Iterations 1
smoothSolver:  Solving for Uz, Initial residual = 0.0539694, Final residual = 5.61703e-07, No Iterations 2
GAMG:  Solving for p, Initial residual = 0.000557995, Final residual = 3.51715e-06, No Iterations 5
time step continuity errors : sum local = 3.82527e-07, global = -6.22793e-08, cumulative = -1.53476e-05
GAMG:  Solving for p, Initial residual = 7.29294e-05, Final residual = 5.99709e-07, No Iterations 5
time step continuity errors : sum local = 6.52462e-08, global = 1.82522e-08, cumulative = -1.53293e-05
smoothSolver:  Solving for epsilon, Initial residual = 0.754455, Final residual = 1.08871e-06, No Iterations 2
smoothSolver:  Solving for k, Initial residual = 0.416037, Final residual = 3.92293e-06, No Iterations 2
ExecutionTime = 0.42 s  ClockTime = 0 s

scalarTransport execute: s
smoothSolver:  Solving for s, Initial residual = 0.992196, Final residual = 0.00433027, No Iterations 1

Courant Number mean: 0.118311 max: 0.314612
deltaT = 0.00293756
Time = 0.0118731

PIMPLE: iteration 1
smoothSolver:  Solving for Ux, Initial residual = 0.113752, Final residual = 0.000237443, No Iterations 1
smoothSolver:  Solving for Uy, Initial residual = 0.199011, Final residual = 0.00106914, No Iterations 1
smoothSolver:  Solving for Uz, Initial residual = 0.227066, Final residual = 0.00073656, No Iterations 1
GAMG:  Solving for p, Initial residual = 0.00339585, Final residual = 3.04971e-05, No Iterations 3
time step continuity errors : sum local = 4.63241e-06, global = 1.39079e-06, cumulative = -1.39385e-05
GAMG:  Solving for p, Initial residual = 0.000194524, Final residual = 7.9954e-07, No Iterations 6
time step continuity errors : sum local = 1.21613e-07, global = 4.98779e-08, cumulative = -1.38886e-05
PIMPLE: iteration 2
smoothSolver:  Solving for Ux, Initial residual = 0.00105963, Final residual = 6.70023e-06, No Iterations 1
smoothSolver:  Solving for Uy, Initial residual = 0.000750669, Final residual = 6.27354e-06, No Iterations 1
smoothSolver:  Solving for Uz, Initial residual = 0.0659929, Final residual = 2.90051e-06, No Iterations 2
GAMG:  Solving for p, Initial residual = 0.000892531, Final residual = 6.08109e-06, No Iterations 5
time step continuity errors : sum local = 8.74528e-07, global = -1.70141e-07, cumulative = -1.40588e-05
GAMG:  Solving for p, Initial residual = 0.000167237, Final residual = 7.29374e-07, No Iterations 6
time step continuity errors : sum local = 1.04948e-07, global = -2.51129e-08, cumulative = -1.40839e-05
smoothSolver:  Solving for epsilon, Initial residual = 0.45033, Final residual = 4.30513e-06, No Iterations 2
smoothSolver:  Solving for k, Initial residual = 0.414864, Final residual = 1.07538e-07, No Iterations 3
ExecutionTime = 0.48 s  ClockTime = 0 s

scalarTransport execute: s
smoothSolver:  Solving for s, Initial residual = 0.982141, Final residual = 0.00733177, No Iterations 1

Courant Number mean: 0.187047 max: 0.494104
deltaT = 0.00352508
Time = 0.0153981

PIMPLE: iteration 1
smoothSolver:  Solving for Ux, Initial residual = 0.104145, Final residual = 0.000556384, No Iterations 1
smoothSolver:  Solving for Uy, Initial residual = 0.181488, Final residual = 0.00231864, No Iterations 1
smoothSolver:  Solving for Uz, Initial residual = 0.250052, Final residual = 0.00150031, No Iterations 1
GAMG:  Solving for p, Initial residual = 0.00434937, Final residual = 2.16174e-05, No Iterations 4
time step continuity errors : sum local = 4.41928e-06, global = -9.41706e-07, cumulative = -1.50256e-05
GAMG:  Solving for p, Initial residual = 0.000500924, Final residual = 5.46383e-07, No Iterations 7
time step continuity errors : sum local = 1.11915e-07, global = -4.05887e-08, cumulative = -1.50662e-05
PIMPLE: iteration 2
smoothSolver:  Solving for Ux, Initial residual = 0.0015308, Final residual = 7.77719e-07, No Iterations 2
smoothSolver:  Solving for Uy, Initial residual = 0.00112251, Final residual = 7.17081e-07, No Iterations 2
smoothSolver:  Solving for Uz, Initial residual = 0.075788, Final residual = 4.39265e-07, No Iterations 3
GAMG:  Solving for p, Initial residual = 0.00138173, Final residual = 1.05749e-05, No Iterations 5
time step continuity errors : sum local = 2.04153e-06, global = -4.45441e-07, cumulative = -1.55116e-05
GAMG:  Solving for p, Initial residual = 0.000378586, Final residual = 8.27219e-07, No Iterations 7
time step continuity errors : sum local = 1.59827e-07, global = 3.83239e-08, cumulative = -1.54733e-05
smoothSolver:  Solving for epsilon, Initial residual = 0.237752, Final residual = 2.07736e-07, No Iterations 3
smoothSolver:  Solving for k, Initial residual = 0.419147, Final residual = 1.15004e-06, No Iterations 3
ExecutionTime = 0.55 s  ClockTime = 0 s

scalarTransport execute: s
smoothSolver:  Solving for s, Initial residual = 0.955242, Final residual = 0.0125758, No Iterations 1

Courant Number mean: 0.289975 max: 0.761328
deltaT = 0.00423009
Time = 0.0196282

PIMPLE: iteration 1
smoothSolver:  Solving for Ux, Initial residual = 0.0975674, Final residual = 0.00128104, No Iterations 1
smoothSolver:  Solving for Uy, Initial residual = 0.167987, Final residual = 0.00449705, No Iterations 1
smoothSolver:  Solving for Uz, Initial residual = 0.242854, Final residual = 0.0028049, No Iterations 1
GAMG:  Solving for p, Initial residual = 0.00588783, Final residual = 3.46328e-05, No Iterations 4
time step continuity errors : sum local = 9.196e-06, global = -1.90617e-06, cumulative = -1.73795e-05
GAMG:  Solving for p, Initial residual = 0.00131896, Final residual = 6.38124e-07, No Iterations 8
time step continuity errors : sum local = 1.69889e-07, global = 4.14321e-08, cumulative = -1.7338e-05
PIMPLE: iteration 2
smoothSolver:  Solving for Ux, Initial residual = 0.00226005, Final residual = 7.67442e-06, No Iterations 2
smoothSolver:  Solving for Uy, Initial residual = 0.00176315, Final residual = 6.54316e-06, No Iterations 2
smoothSolver:  Solving for Uz, Initial residual = 0.10355, Final residual = 5.91552e-06, No Iterations 3
GAMG:  Solving for p, Initial residual = 0.00220511, Final residual = 1.85451e-05, No Iterations 5
time step continuity errors : sum local = 4.66766e-06, global = -1.0661e-06, cumulative = -1.84041e-05
GAMG:  Solving for p, Initial residual = 0.000808242, Final residual = 9.37068e-07, No Iterations 8
time step continuity errors : sum local = 2.36118e-07, global = -7.12096e-08, cumulative = -1.84754e-05
smoothSolver:  Solving for epsilon, Initial residual = 0.152966, Final residual = 1.88582e-06, No Iterations 3
smoothSolver:  Solving for k, Initial residual = 0.420823, Final residual = 7.22781e-07, No Iterations 4
ExecutionTime = 0.61 s  ClockTime = 0 s

scalarTransport execute: s
smoothSolver:  Solving for s, Initial residual = 0.916557, Final residual = 0.0223076, No Iterations 1

Courant Number mean: 0.441466 max: 1.15353
deltaT = 0.00502324
Time = 0.0246515

PIMPLE: iteration 1
smoothSolver:  Solving for Ux, Initial residual = 0.0919816, Final residual = 0.00278528, No Iterations 1
smoothSolver:  Solving for Uy, Initial residual = 0.155428, Final residual = 0.00901637, No Iterations 1
smoothSolver:  Solving for Uz, Initial residual = 0.221729, Final residual = 0.00589633, No Iterations 1
GAMG:  Solving for p, Initial residual = 0.00827454, Final residual = 6.02109e-05, No Iterations 4
time step continuity errors : sum local = 2.04016e-05, global = -4.10361e-06, cumulative = -2.2579e-05
GAMG:  Solving for p, Initial residual = 0.00301436, Final residual = 8.46184e-07, No Iterations 9
time step continuity errors : sum local = 2.87828e-07, global = -1.1606e-07, cumulative = -2.2695e-05
PIMPLE: iteration 2
smoothSolver:  Solving for Ux, Initial residual = 0.00325546, Final residual = 3.40408e-06, No Iterations 4
smoothSolver:  Solving for Uy, Initial residual = 0.00298205, Final residual = 2.84954e-06, No Iterations 4
smoothSolver:  Solving for Uz, Initial residual = 0.157698, Final residual = 2.10313e-06, No Iterations 5
GAMG:  Solving for p, Initial residual = 0.00371399, Final residual = 3.56405e-05, No Iterations 5
time step continuity errors : sum local = 1.10875e-05, global = -2.60844e-06, cumulative = -2.53035e-05
GAMG:  Solving for p, Initial residual = 0.00169638, Final residual = 6.03735e-07, No Iterations 10
time step continuity errors : sum local = 1.88052e-07, global = -6.53677e-08, cumulative = -2.53688e-05
smoothSolver:  Solving for epsilon, Initial residual = 0.110014, Final residual = 1.19675e-06, No Iterations 4
smoothSolver:  Solving for k, Initial residual = 0.408504, Final residual = 2.4704e-06, No Iterations 5
ExecutionTime = 0.69 s  ClockTime = 0 s

scalarTransport execute: s
smoothSolver:  Solving for s, Initial residual = 0.867597, Final residual = 0.039579, No Iterations 1

Courant Number mean: 0.654258 max: 1.69893
deltaT = 0.00579604
Time = 0.0304475

PIMPLE: iteration 1
smoothSolver:  Solving for Ux, Initial residual = 0.0852356, Final residual = 0.00562706, No Iterations 1
smoothSolver:  Solving for Uy, Initial residual = 0.139723, Final residual = 0.00305674, No Iterations 2
smoothSolver:  Solving for Uz, Initial residual = 0.205862, Final residual = 0.0117958, No Iterations 1
GAMG:  Solving for p, Initial residual = 0.0098831, Final residual = 5.49803e-05, No Iterations 6
time step continuity errors : sum local = 2.20883e-05, global = -4.38076e-06, cumulative = -2.97496e-05
GAMG:  Solving for p, Initial residual = 0.00377318, Final residual = 7.19938e-07, No Iterations 11
time step continuity errors : sum local = 2.90248e-07, global = -1.27404e-07, cumulative = -2.9877e-05
PIMPLE: iteration 2
smoothSolver:  Solving for Ux, Initial residual = 0.00450068, Final residual = 8.05255e-06, No Iterations 4
smoothSolver:  Solving for Uy, Initial residual = 0.00450908, Final residual = 2.92219e-06, No Iterations 5
smoothSolver:  Solving for Uz, Initial residual = 0.112689, Final residual = 2.48986e-06, No Iterations 6
GAMG:  Solving for p, Initial residual = 0.00539116, Final residual = 4.29747e-05, No Iterations 5
time step continuity errors : sum local = 1.55881e-05, global = -3.02765e-06, cumulative = -3.29047e-05
GAMG:  Solving for p, Initial residual = 0.00274387, Final residual = 8.48959e-07, No Iterations 10
time step continuity errors : sum local = 3.09051e-07, global = -1.67206e-07, cumulative = -3.30719e-05
smoothSolver:  Solving for epsilon, Initial residual = 0.0840489, Final residual = 4.59882e-06, No Iterations 5
smoothSolver:  Solving for k, Initial residual = 0.368544, Final residual = 2.673e-06, No Iterations 7
ExecutionTime = 0.76 s  ClockTime = 1 s

scalarTransport execute: s
smoothSolver:  Solving for s, Initial residual = 0.794858, Final residual = 0.057982, No Iterations 1

Courant Number mean: 0.924167 max: 2.37456
deltaT = 0.00695525
Time = 0.0374028

PIMPLE: iteration 1
smoothSolver:  Solving for Ux, Initial residual = 0.0787266, Final residual = 0.00187773, No Iterations 2
smoothSolver:  Solving for Uy, Initial residual = 0.118764, Final residual = 0.0037146, No Iterations 2
smoothSolver:  Solving for Uz, Initial residual = 0.190937, Final residual = 0.01733, No Iterations 1
GAMG:  Solving for p, Initial residual = 0.0181864, Final residual = 0.000151932, No Iterations 7
time step continuity errors : sum local = 7.43402e-05, global = 1.86237e-05, cumulative = -1.44482e-05
GAMG:  Solving for p, Initial residual = 0.00747427, Final residual = 7.47268e-07, No Iterations 12
time step continuity errors : sum local = 3.63048e-07, global = 1.30417e-07, cumulative = -1.43178e-05
PIMPLE: iteration 2
smoothSolver:  Solving for Ux, Initial residual = 0.00738049, Final residual = 4.59817e-06, No Iterations 5
smoothSolver:  Solving for Uy, Initial residual = 0.0207634, Final residual = 4.04015e-06, No Iterations 6
smoothSolver:  Solving for Uz, Initial residual = 0.16911, Final residual = 5.46029e-06, No Iterations 6
GAMG:  Solving for p, Initial residual = 0.0146846, Final residual = 9.8062e-05, No Iterations 5
time step continuity errors : sum local = 4.40316e-05, global = 1.42374e-05, cumulative = -8.03784e-08
GAMG:  Solving for p, Initial residual = 0.00794049, Final residual = 3.7948e-07, No Iterations 12
time step continuity errors : sum local = 1.7397e-07, global = -1.02154e-07, cumulative = -1.82532e-07
smoothSolver:  Solving for epsilon, Initial residual = 0.0641238, Final residual = 6.03325e-06, No Iterations 5
smoothSolver:  Solving for k, Initial residual = 0.30104, Final residual = 3.9232e-06, No Iterations 7
ExecutionTime = 0.84 s  ClockTime = 1 s

scalarTransport execute: s
smoothSolver:  Solving for s, Initial residual = 0.693624, Final residual = 0.00780749, No Iterations 2

Courant Number mean: 1.33953 max: 3.42559
deltaT = 0.00782466
Time = 0.0452274

PIMPLE: iteration 1
smoothSolver:  Solving for Ux, Initial residual = 0.0671427, Final residual = 0.00244565, No Iterations 2
smoothSolver:  Solving for Uy, Initial residual = 0.0938437, Final residual = 0.00354826, No Iterations 2
smoothSolver:  Solving for Uz, Initial residual = 0.22029, Final residual = 0.00472533, No Iterations 2
GAMG:  Solving for p, Initial residual = 0.0270828, Final residual = 0.000218398, No Iterations 7
time step continuity errors : sum local = 0.000115928, global = 2.87046e-05, cumulative = 2.8522e-05
GAMG:  Solving for p, Initial residual = 0.0124764, Final residual = 9.93083e-07, No Iterations 12
time step continuity errors : sum local = 5.20289e-07, global = 1.99642e-07, cumulative = 2.87217e-05
PIMPLE: iteration 2
smoothSolver:  Solving for Ux, Initial residual = 0.0116156, Final residual = 4.51446e-06, No Iterations 6
smoothSolver:  Solving for Uy, Initial residual = 0.0281772, Final residual = 7.83438e-06, No Iterations 6
smoothSolver:  Solving for Uz, Initial residual = 0.199561, Final residual = 3.72853e-06, No Iterations 7
GAMG:  Solving for p, Initial residual = 0.0232919, Final residual = 0.000193831, No Iterations 4
time step continuity errors : sum local = 0.000102072, global = 4.55595e-05, cumulative = 7.42812e-05
GAMG:  Solving for p, Initial residual = 0.0126677, Final residual = 7.00274e-07, No Iterations 12
time step continuity errors : sum local = 3.77668e-07, global = -2.23448e-07, cumulative = 7.40577e-05
smoothSolver:  Solving for epsilon, Initial residual = 0.0474604, Final residual = 9.17125e-06, No Iterations 5
smoothSolver:  Solving for k, Initial residual = 0.210467, Final residual = 3.2847e-06, No Iterations 8
ExecutionTime = 0.92 s  ClockTime = 1 s

scalarTransport execute: s
smoothSolver:  Solving for s, Initial residual = 0.584842, Final residual = 0.0130777, No Iterations 2

Courant Number mean: 1.77608 max: 4.55439
deltaT = 0.00912876
Time = 0.0543562

PIMPLE: iteration 1
smoothSolver:  Solving for Ux, Initial residual = 0.0567575, Final residual = 0.00243084, No Iterations 2
smoothSolver:  Solving for Uy, Initial residual = 0.0731144, Final residual = 0.00357448, No Iterations 2
smoothSolver:  Solving for Uz, Initial residual = 0.237602, Final residual = 0.00572435, No Iterations 2
GAMG:  Solving for p, Initial residual = 0.0389657, Final residual = 0.000347443, No Iterations 6
time step continuity errors : sum local = 0.000209376, global = -8.72816e-05, cumulative = -1.32239e-05
GAMG:  Solving for p, Initial residual = 0.0178713, Final residual = 8.92673e-07, No Iterations 12
time step continuity errors : sum local = 5.29111e-07, global = 2.35234e-07, cumulative = -1.29886e-05
PIMPLE: iteration 2
smoothSolver:  Solving for Ux, Initial residual = 0.0194645, Final residual = 7.43869e-06, No Iterations 6
smoothSolver:  Solving for Uy, Initial residual = 0.0334969, Final residual = 4.04496e-06, No Iterations 7
smoothSolver:  Solving for Uz, Initial residual = 0.213792, Final residual = 6.63496e-06, No Iterations 7
GAMG:  Solving for p, Initial residual = 0.033786, Final residual = 0.000307059, No Iterations 4
time step continuity errors : sum local = 0.000188264, global = 0.0001248, cumulative = 0.000111811
GAMG:  Solving for p, Initial residual = 0.0175884, Final residual = 7.42123e-07, No Iterations 12
time step continuity errors : sum local = 4.67063e-07, global = -2.81359e-07, cumulative = 0.00011153
smoothSolver:  Solving for epsilon, Initial residual = 0.0334269, Final residual = 8.64813e-06, No Iterations 5
smoothSolver:  Solving for k, Initial residual = 0.141746, Final residual = 4.51303e-06, No Iterations 8
ExecutionTime = 1 s  ClockTime = 1 s

scalarTransport execute: s
smoothSolver:  Solving for s, Initial residual = 0.455818, Final residual = 0.019455, No Iterations 2

Courant Number mean: 2.39671 max: 6.17141
deltaT = 0.0076073
Time = 0.0619635

PIMPLE: iteration 1
smoothSolver:  Solving for Ux, Initial residual = 0.0424807, Final residual = 0.00179685, No Iterations 2
smoothSolver:  Solving for Uy, Initial residual = 0.0512101, Final residual = 0.00256231, No Iterations 2
smoothSolver:  Solving for Uz, Initial residual = 0.219733, Final residual = 0.0051635, No Iterations 2
GAMG:  Solving for p, Initial residual = 0.0413323, Final residual = 0.000272874, No Iterations 6
time step continuity errors : sum local = 0.000120853, global = -5.34109e-05, cumulative = 5.8119e-05
GAMG:  Solving for p, Initial residual = 0.0172, Final residual = 8.80979e-07, No Iterations 12
time step continuity errors : sum local = 3.84726e-07, global = 1.82915e-07, cumulative = 5.83019e-05
PIMPLE: iteration 2
smoothSolver:  Solving for Ux, Initial residual = 0.0147273, Final residual = 6.85536e-06, No Iterations 6
smoothSolver:  Solving for Uy, Initial residual = 0.0246542, Final residual = 3.03706e-06, No Iterations 7
smoothSolver:  Solving for Uz, Initial residual = 0.176546, Final residual = 4.07184e-06, No Iterations 7
GAMG:  Solving for p, Initial residual = 0.0319686, Final residual = 0.000211446, No Iterations 4
time step continuity errors : sum local = 9.8186e-05, global = 5.08288e-05, cumulative = 0.000109131
GAMG:  Solving for p, Initial residual = 0.0153076, Final residual = 7.78724e-07, No Iterations 12
time step continuity errors : sum local = 3.68817e-07, global = -2.35354e-07, cumulative = 0.000108895
smoothSolver:  Solving for epsilon, Initial residual = 0.0216374, Final residual = 5.43047e-06, No Iterations 5
smoothSolver:  Solving for k, Initial residual = 0.0862982, Final residual = 4.16448e-06, No Iterations 7
ExecutionTime = 1.08 s  ClockTime = 1 s

scalarTransport execute: s
smoothSolver:  Solving for s, Initial residual = 0.346968, Final residual = 0.0130754, No Iterations 2

Courant Number mean: 2.2127 max: 5.75197
deltaT = 0.00633942
Time = 0.0683029

PIMPLE: iteration 1
smoothSolver:  Solving for Ux, Initial residual = 0.0334671, Final residual = 0.00135063, No Iterations 2
smoothSolver:  Solving for Uy, Initial residual = 0.0387443, Final residual = 0.00185291, No Iterations 2
smoothSolver:  Solving for Uz, Initial residual = 0.186136, Final residual = 0.00462994, No Iterations 2
GAMG:  Solving for p, Initial residual = 0.0376727, Final residual = 0.000267443, No Iterations 6
time step continuity errors : sum local = 8.85732e-05, global = -3.27532e-05, cumulative = 7.61422e-05
GAMG:  Solving for p, Initial residual = 0.0144841, Final residual = 6.74629e-07, No Iterations 13
time step continuity errors : sum local = 2.22289e-07, global = -5.71532e-08, cumulative = 7.6085e-05
PIMPLE: iteration 2
smoothSolver:  Solving for Ux, Initial residual = 0.0111858, Final residual = 4.50633e-06, No Iterations 6
smoothSolver:  Solving for Uy, Initial residual = 0.018226, Final residual = 7.40734e-06, No Iterations 6
smoothSolver:  Solving for Uz, Initial residual = 0.136567, Final residual = 5.311e-06, No Iterations 7
GAMG:  Solving for p, Initial residual = 0.0290517, Final residual = 0.000184723, No Iterations 4
time step continuity errors : sum local = 6.35487e-05, global = 2.91885e-05, cumulative = 0.000105274
GAMG:  Solving for p, Initial residual = 0.013238, Final residual = 5.40095e-07, No Iterations 12
time step continuity errors : sum local = 1.88313e-07, global = -1.15793e-07, cumulative = 0.000105158
smoothSolver:  Solving for epsilon, Initial residual = 0.0171497, Final residual = 4.99225e-06, No Iterations 5
smoothSolver:  Solving for k, Initial residual = 0.0628102, Final residual = 4.51531e-06, No Iterations 7
ExecutionTime = 1.16 s  ClockTime = 1 s

scalarTransport execute: s
smoothSolver:  Solving for s, Initial residual = 0.276218, Final residual = 0.00930107, No Iterations 2

Courant Number mean: 1.988 max: 5.19567
deltaT = 0.00633942
Time = 0.0746423

PIMPLE: iteration 1
smoothSolver:  Solving for Ux, Initial residual = 0.0287826, Final residual = 0.00130206, No Iterations 2
smoothSolver:  Solving for Uy, Initial residual = 0.0319376, Final residual = 0.00170561, No Iterations 2
smoothSolver:  Solving for Uz, Initial residual = 0.149876, Final residual = 0.00519349, No Iterations 2
GAMG:  Solving for p, Initial residual = 0.0355516, Final residual = 0.000253769, No Iterations 6
time step continuity errors : sum local = 8.60364e-05, global = -2.62397e-05, cumulative = 7.89181e-05
GAMG:  Solving for p, Initial residual = 0.0143422, Final residual = 8.59021e-07, No Iterations 13
time step continuity errors : sum local = 2.91048e-07, global = -7.94399e-08, cumulative = 7.88386e-05
PIMPLE: iteration 2
smoothSolver:  Solving for Ux, Initial residual = 0.0111955, Final residual = 5.12364e-06, No Iterations 6
smoothSolver:  Solving for Uy, Initial residual = 0.0171167, Final residual = 8.68736e-06, No Iterations 6
smoothSolver:  Solving for Uz, Initial residual = 0.131947, Final residual = 6.00714e-06, No Iterations 7
GAMG:  Solving for p, Initial residual = 0.032352, Final residual = 0.000247063, No Iterations 4
time step continuity errors : sum local = 8.15162e-05, global = 3.64996e-05, cumulative = 0.000115338
GAMG:  Solving for p, Initial residual = 0.0150187, Final residual = 5.55982e-07, No Iterations 12
time step continuity errors : sum local = 1.85264e-07, global = -1.03925e-07, cumulative = 0.000115234
smoothSolver:  Solving for epsilon, Initial residual = 0.0123057, Final residual = 5.48754e-06, No Iterations 5
smoothSolver:  Solving for k, Initial residual = 0.0537377, Final residual = 4.42372e-06, No Iterations 7
ExecutionTime = 1.24 s  ClockTime = 1 s

scalarTransport execute: s
smoothSolver:  Solving for s, Initial residual = 0.228537, Final residual = 0.0100117, No Iterations 2

Courant Number mean: 2.12101 max: 5.57199
deltaT = 0.00633942
Time = 0.0809817

PIMPLE: iteration 1
smoothSolver:  Solving for Ux, Initial residual = 0.0257193, Final residual = 0.00123973, No Iterations 2
smoothSolver:  Solving for Uy, Initial residual = 0.0271319, Final residual = 0.00152188, No Iterations 2
smoothSolver:  Solving for Uz, Initial residual = 0.139299, Final residual = 0.0047402, No Iterations 2
GAMG:  Solving for p, Initial residual = 0.0361639, Final residual = 0.00023909, No Iterations 6
time step continuity errors : sum local = 8.01342e-05, global = -2.2344e-05, cumulative = 9.28903e-05
GAMG:  Solving for p, Initial residual = 0.0138333, Final residual = 9.008e-07, No Iterations 13
time step continuity errors : sum local = 3.02015e-07, global = -9.02483e-08, cumulative = 9.28001e-05
PIMPLE: iteration 2
smoothSolver:  Solving for Ux, Initial residual = 0.0110923, Final residual = 4.99363e-06, No Iterations 6
smoothSolver:  Solving for Uy, Initial residual = 0.0159456, Final residual = 9.05938e-06, No Iterations 6
smoothSolver:  Solving for Uz, Initial residual = 0.121178, Final residual = 7.31585e-06, No Iterations 7
GAMG:  Solving for p, Initial residual = 0.0318757, Final residual = 0.000297109, No Iterations 4
time step continuity errors : sum local = 9.83103e-05, global = 3.78113e-05, cumulative = 0.000130611
GAMG:  Solving for p, Initial residual = 0.0145666, Final residual = 4.23127e-07, No Iterations 12
time step continuity errors : sum local = 1.40884e-07, global = -7.90875e-08, cumulative = 0.000130532
smoothSolver:  Solving for epsilon, Initial residual = 0.0117697, Final residual = 7.24646e-06, No Iterations 5
smoothSolver:  Solving for k, Initial residual = 0.0469423, Final residual = 4.54948e-06, No Iterations 7
ExecutionTime = 1.31 s  ClockTime = 1 s

scalarTransport execute: s
smoothSolver:  Solving for s, Initial residual = 0.190777, Final residual = 0.00871285, No Iterations 2

Courant Number mean: 2.24395 max: 5.92698
deltaT = 0.00475456
Time = 0.0857363

PIMPLE: iteration 1
smoothSolver:  Solving for Ux, Initial residual = 0.0206475, Final residual = 0.000846329, No Iterations 2
smoothSolver:  Solving for Uy, Initial residual = 0.0212622, Final residual = 0.00113562, No Iterations 2
smoothSolver:  Solving for Uz, Initial residual = 0.118974, Final residual = 0.0038823, No Iterations 2
GAMG:  Solving for p, Initial residual = 0.0366263, Final residual = 0.000294006, No Iterations 5
time step continuity errors : sum local = 6.40849e-05, global = 1.27932e-05, cumulative = 0.000143325
GAMG:  Solving for p, Initial residual = 0.0118756, Final residual = 7.64785e-07, No Iterations 13
time step continuity errors : sum local = 1.66603e-07, global = -5.27709e-08, cumulative = 0.000143273
PIMPLE: iteration 2
smoothSolver:  Solving for Ux, Initial residual = 0.00749993, Final residual = 8.45106e-06, No Iterations 5
smoothSolver:  Solving for Uy, Initial residual = 0.0114248, Final residual = 5.3694e-06, No Iterations 6
smoothSolver:  Solving for Uz, Initial residual = 0.0894255, Final residual = 5.33159e-06, No Iterations 7
GAMG:  Solving for p, Initial residual = 0.0278635, Final residual = 0.000218679, No Iterations 4
time step continuity errors : sum local = 4.69672e-05, global = 1.73492e-05, cumulative = 0.000160622
GAMG:  Solving for p, Initial residual = 0.011294, Final residual = 3.20196e-07, No Iterations 12
time step continuity errors : sum local = 6.91995e-08, global = -4.01149e-08, cumulative = 0.000160582
smoothSolver:  Solving for epsilon, Initial residual = 0.00795186, Final residual = 5.99607e-06, No Iterations 5
smoothSolver:  Solving for k, Initial residual = 0.0396531, Final residual = 3.30158e-06, No Iterations 7
ExecutionTime = 1.4 s  ClockTime = 1 s

scalarTransport execute: s
smoothSolver:  Solving for s, Initial residual = 0.147502, Final residual = 0.00564895, No Iterations 2

Courant Number mean: 1.75301 max: 4.63525
deltaT = 0.00475456
Time = 0.0904909

PIMPLE: iteration 1
smoothSolver:  Solving for Ux, Initial residual = 0.0186731, Final residual = 0.000882853, No Iterations 2
smoothSolver:  Solving for Uy, Initial residual = 0.0187651, Final residual = 0.00109129, No Iterations 2
smoothSolver:  Solving for Uz, Initial residual = 0.0990333, Final residual = 0.00431951, No Iterations 2
GAMG:  Solving for p, Initial residual = 0.0316444, Final residual = 0.000194847, No Iterations 6
time step continuity errors : sum local = 4.12015e-05, global = -1.15713e-05, cumulative = 0.00014901
GAMG:  Solving for p, Initial residual = 0.0111828, Final residual = 9.60336e-07, No Iterations 13
time step continuity errors : sum local = 2.03089e-07, global = -6.68962e-08, cumulative = 0.000148944
PIMPLE: iteration 2
smoothSolver:  Solving for Ux, Initial residual = 0.00752301, Final residual = 8.6449e-06, No Iterations 5
smoothSolver:  Solving for Uy, Initial residual = 0.0107255, Final residual = 5.16868e-06, No Iterations 6
smoothSolver:  Solving for Uz, Initial residual = 0.0784261, Final residual = 5.31108e-06, No Iterations 7
GAMG:  Solving for p, Initial residual = 0.0271171, Final residual = 0.000237015, No Iterations 4
time step continuity errors : sum local = 5.22546e-05, global = 1.79545e-05, cumulative = 0.000166898
GAMG:  Solving for p, Initial residual = 0.0106724, Final residual = 9.34917e-07, No Iterations 11
time step continuity errors : sum local = 2.06688e-07, global = 4.52749e-08, cumulative = 0.000166943
smoothSolver:  Solving for epsilon, Initial residual = 0.00894304, Final residual = 7.9127e-06, No Iterations 5
smoothSolver:  Solving for k, Initial residual = 0.0381984, Final residual = 3.54866e-06, No Iterations 7
ExecutionTime = 1.47 s  ClockTime = 1 s

scalarTransport execute: s
smoothSolver:  Solving for s, Initial residual = 0.129636, Final residual = 0.0059614, No Iterations 2

Courant Number mean: 1.81822 max: 4.82155
deltaT = 0.00475456
Time = 0.0952454

PIMPLE: iteration 1
smoothSolver:  Solving for Ux, Initial residual = 0.0171357, Final residual = 0.000843838, No Iterations 2
smoothSolver:  Solving for Uy, Initial residual = 0.0167584, Final residual = 0.00101711, No Iterations 2
smoothSolver:  Solving for Uz, Initial residual = 0.0877696, Final residual = 0.00395281, No Iterations 2
GAMG:  Solving for p, Initial residual = 0.0320258, Final residual = 0.000192248, No Iterations 6
time step continuity errors : sum local = 4.05799e-05, global = -1.11036e-05, cumulative = 0.00015584
GAMG:  Solving for p, Initial residual = 0.0105256, Final residual = 8.63011e-07, No Iterations 13
time step continuity errors : sum local = 1.82692e-07, global = -5.75659e-08, cumulative = 0.000155782
PIMPLE: iteration 2
smoothSolver:  Solving for Ux, Initial residual = 0.00756634, Final residual = 9.36031e-06, No Iterations 5
smoothSolver:  Solving for Uy, Initial residual = 0.0101467, Final residual = 5.6034e-06, No Iterations 6
smoothSolver:  Solving for Uz, Initial residual = 0.0725021, Final residual = 5.92664e-06, No Iterations 7
GAMG:  Solving for p, Initial residual = 0.0281355, Final residual = 0.000257092, No Iterations 4
time step continuity errors : sum local = 5.43967e-05, global = 1.88552e-05, cumulative = 0.000174637
GAMG:  Solving for p, Initial residual = 0.0104797, Final residual = 8.89595e-07, No Iterations 11
time step continuity errors : sum local = 1.88339e-07, global = 4.16851e-08, cumulative = 0.000174679
smoothSolver:  Solving for epsilon, Initial residual = 0.00743697, Final residual = 9.10117e-06, No Iterations 5
smoothSolver:  Solving for k, Initial residual = 0.0370544, Final residual = 3.76662e-06, No Iterations 7
ExecutionTime = 1.55 s  ClockTime = 1 s

scalarTransport execute: s
smoothSolver:  Solving for s, Initial residual = 0.114769, Final residual = 0.00552072, No Iterations 2

Courant Number mean: 1.87912 max: 4.99906
deltaT = 0.00475456
Time = 0.1

PIMPLE: iteration 1
smoothSolver:  Solving for Ux, Initial residual = 0.015949, Final residual = 0.000813126, No Iterations 2
smoothSolver:  Solving for Uy, Initial residual = 0.015106, Final residual = 0.000936865, No Iterations 2
smoothSolver:  Solving for Uz, Initial residual = 0.0814785, Final residual = 0.0037921, No Iterations 2
GAMG:  Solving for p, Initial residual = 0.0319737, Final residual = 0.000182242, No Iterations 6
time step continuity errors : sum local = 3.88299e-05, global = -9.49615e-06, cumulative = 0.000165183
GAMG:  Solving for p, Initial residual = 0.010051, Final residual = 9.46675e-07, No Iterations 13
time step continuity errors : sum local = 2.02492e-07, global = -8.0516e-08, cumulative = 0.000165102
PIMPLE: iteration 2
smoothSolver:  Solving for Ux, Initial residual = 0.00753521, Final residual = 9.27325e-06, No Iterations 5
smoothSolver:  Solving for Uy, Initial residual = 0.00955479, Final residual = 5.31977e-06, No Iterations 6
smoothSolver:  Solving for Uz, Initial residual = 0.0674171, Final residual = 5.06218e-06, No Iterations 7
GAMG:  Solving for p, Initial residual = 0.0287217, Final residual = 0.000270926, No Iterations 4
time step continuity errors : sum local = 5.68102e-05, global = 1.66601e-05, cumulative = 0.000181762
GAMG:  Solving for p, Initial residual = 0.0104416, Final residual = 7.44875e-07, No Iterations 11
time step continuity errors : sum local = 1.559e-07, global = 3.13895e-08, cumulative = 0.000181794
smoothSolver:  Solving for epsilon, Initial residual = 0.00861059, Final residual = 3.35407e-06, No Iterations 6
smoothSolver:  Solving for k, Initial residual = 0.0362056, Final residual = 4.12427e-06, No Iterations 7
ExecutionTime = 1.67 s  ClockTime = 1 s

scalarTransport execute: s
smoothSolver:  Solving for s, Initial residual = 0.101369, Final residual = 0.00526747, No Iterations 2

scalarTransport write: sTransport
	s

Courant Number mean: 1.93573 max: 5.16985
deltaT = 0.00454545
Time = 0.104545

PIMPLE: iteration 1
smoothSolver:  Solving for Ux, Initial residual = 0.014551, Final residual = 0.0007297, No Iterations 2
smoothSolver:  Solving for Uy, Initial residual = 0.0136318, Final residual = 0.000866733, No Iterations 2
smoothSolver:  Solving for Uz, Initial residual = 0.0730448, Final residual = 0.00358061, No Iterations 2
GAMG:  Solving for p, Initial residual = 0.0322617, Final residual = 0.000287757, No Iterations 5
time step continuity errors : sum local = 5.68017e-05, global = 1.41898e-05, cumulative = 0.000195984
GAMG:  Solving for p, Initial residual = 0.00940597, Final residual = 9.74374e-07, No Iterations 12
time step continuity errors : sum local = 1.93165e-07, global = 4.56449e-08, cumulative = 0.000196029
PIMPLE: iteration 2
smoothSolver:  Solving for Ux, Initial residual = 0.00711628, Final residual = 8.76464e-06, No Iterations 5
smoothSolver:  Solving for Uy, Initial residual = 0.00873244, Final residual = 4.94932e-06, No Iterations 6
smoothSolver:  Solving for Uz, Initial residual = 0.0596494, Final residual = 5.21651e-06, No Iterations 7
GAMG:  Solving for p, Initial residual = 0.0284165, Final residual = 0.000268196, No Iterations 4
time step continuity errors : sum local = 5.34429e-05, global = 1.53656e-05, cumulative = 0.000211395
GAMG:  Solving for p, Initial residual = 0.00991936, Final residual = 7.3988e-07, No Iterations 11
time step continuity errors : sum local = 1.47036e-07, global = 2.95509e-08, cumulative = 0.000211424
smoothSolver:  Solving for epsilon, Initial residual = 0.00805433, Final residual = 3.49164e-06, No Iterations 6
smoothSolver:  Solving for k, Initial residual = 0.0349788, Final residual = 4.15935e-06, No Iterations 7
ExecutionTime = 1.76 s  ClockTime = 2 s

scalarTransport execute: s
smoothSolver:  Solving for s, Initial residual = 0.0889589, Final residual = 0.00453207, No Iterations 2

Courant Number mean: 1.90035 max: 5.09198
deltaT = 0.00454545
Time = 0.109091

PIMPLE: iteration 1
smoothSolver:  Solving for Ux, Initial residual = 0.0137093, Final residual = 0.000713734, No Iterations 2
smoothSolver:  Solving for Uy, Initial residual = 0.0125355, Final residual = 0.000803928, No Iterations 2
smoothSolver:  Solving for Uz, Initial residual = 0.0686589, Final residual = 0.00345613, No Iterations 2
GAMG:  Solving for p, Initial residual = 0.0331137, Final residual = 0.000291779, No Iterations 5
time step continuity errors : sum local = 5.54711e-05, global = 1.38489e-05, cumulative = 0.000225273
GAMG:  Solving for p, Initial residual = 0.00995261, Final residual = 9.57145e-07, No Iterations 12
time step continuity errors : sum local = 1.82676e-07, global = 4.37892e-08, cumulative = 0.000225317
PIMPLE: iteration 2
smoothSolver:  Solving for Ux, Initial residual = 0.00701184, Final residual = 8.62112e-06, No Iterations 5
smoothSolver:  Solving for Uy, Initial residual = 0.00831528, Final residual = 5.11293e-06, No Iterations 6
smoothSolver:  Solving for Uz, Initial residual = 0.0557646, Final residual = 5.84431e-06, No Iterations 7
GAMG:  Solving for p, Initial residual = 0.0278416, Final residual = 0.000236932, No Iterations 4
time step continuity errors : sum local = 4.8301e-05, global = 1.24085e-05, cumulative = 0.000237726
GAMG:  Solving for p, Initial residual = 0.00924745, Final residual = 8.20594e-07, No Iterations 10
time step continuity errors : sum local = 1.66523e-07, global = -1.11964e-07, cumulative = 0.000237614
smoothSolver:  Solving for epsilon, Initial residual = 0.00903515, Final residual = 4.24894e-06, No Iterations 6
smoothSolver:  Solving for k, Initial residual = 0.0346698, Final residual = 4.3107e-06, No Iterations 7
ExecutionTime = 1.83 s  ClockTime = 2 s

scalarTransport execute: s
smoothSolver:  Solving for s, Initial residual = 0.0800304, Final residual = 0.00409583, No Iterations 2

Courant Number mean: 1.94661 max: 5.23563
deltaT = 0.004329
Time = 0.11342

PIMPLE: iteration 1
smoothSolver:  Solving for Ux, Initial residual = 0.0125789, Final residual = 0.000674017, No Iterations 2
smoothSolver:  Solving for Uy, Initial residual = 0.0117043, Final residual = 0.000735798, No Iterations 2
smoothSolver:  Solving for Uz, Initial residual = 0.0629392, Final residual = 0.00319558, No Iterations 2
GAMG:  Solving for p, Initial residual = 0.0326893, Final residual = 0.000271589, No Iterations 5
time step continuity errors : sum local = 4.81176e-05, global = 1.41588e-05, cumulative = 0.000251773
GAMG:  Solving for p, Initial residual = 0.00923475, Final residual = 6.87048e-07, No Iterations 13
time step continuity errors : sum local = 1.22688e-07, global = -4.95556e-08, cumulative = 0.000251723
PIMPLE: iteration 2
smoothSolver:  Solving for Ux, Initial residual = 0.00648221, Final residual = 8.19847e-06, No Iterations 5
smoothSolver:  Solving for Uy, Initial residual = 0.00756352, Final residual = 4.7486e-06, No Iterations 6
smoothSolver:  Solving for Uz, Initial residual = 0.0497787, Final residual = 5.62146e-06, No Iterations 7
GAMG:  Solving for p, Initial residual = 0.0277824, Final residual = 0.00024716, No Iterations 4
time step continuity errors : sum local = 4.63421e-05, global = 9.73296e-06, cumulative = 0.000261456
GAMG:  Solving for p, Initial residual = 0.00898665, Final residual = 7.83557e-07, No Iterations 10
time step continuity errors : sum local = 1.46029e-07, global = -9.32282e-08, cumulative = 0.000261363
smoothSolver:  Solving for epsilon, Initial residual = 0.00949004, Final residual = 4.31665e-06, No Iterations 6
smoothSolver:  Solving for k, Initial residual = 0.0335464, Final residual = 4.43819e-06, No Iterations 7
ExecutionTime = 1.89 s  ClockTime = 2 s

scalarTransport execute: s
smoothSolver:  Solving for s, Initial residual = 0.0704075, Final residual = 0.00377149, No Iterations 2

Courant Number mean: 1.89438 max: 5.1105
deltaT = 0.004329
Time = 0.117749

PIMPLE: iteration 1
smoothSolver:  Solving for Ux, Initial residual = 0.0118344, Final residual = 0.00064266, No Iterations 2
smoothSolver:  Solving for Uy, Initial residual = 0.0109363, Final residual = 0.000705982, No Iterations 2
smoothSolver:  Solving for Uz, Initial residual = 0.0578927, Final residual = 0.00311018, No Iterations 2
GAMG:  Solving for p, Initial residual = 0.0314714, Final residual = 0.000256203, No Iterations 5
time step continuity errors : sum local = 4.58132e-05, global = 1.25776e-05, cumulative = 0.00027394
GAMG:  Solving for p, Initial residual = 0.00902315, Final residual = 7.99083e-07, No Iterations 12
time step continuity errors : sum local = 1.43651e-07, global = 3.50914e-08, cumulative = 0.000273975
PIMPLE: iteration 2
smoothSolver:  Solving for Ux, Initial residual = 0.00624045, Final residual = 8.14932e-06, No Iterations 5
smoothSolver:  Solving for Uy, Initial residual = 0.00721994, Final residual = 4.57143e-06, No Iterations 6
smoothSolver:  Solving for Uz, Initial residual = 0.0442376, Final residual = 5.29686e-06, No Iterations 7
GAMG:  Solving for p, Initial residual = 0.0281875, Final residual = 0.000215674, No Iterations 4
time step continuity errors : sum local = 3.97353e-05, global = 9.78484e-06, cumulative = 0.00028376
GAMG:  Solving for p, Initial residual = 0.00891628, Final residual = 9.01163e-07, No Iterations 10
time step continuity errors : sum local = 1.65117e-07, global = -1.0542e-07, cumulative = 0.000283655
smoothSolver:  Solving for epsilon, Initial residual = 0.0103967, Final residual = 4.83272e-06, No Iterations 6
smoothSolver:  Solving for k, Initial residual = 0.0333683, Final residual = 4.64265e-06, No Iterations 7
ExecutionTime = 1.96 s  ClockTime = 2 s

scalarTransport execute: s
smoothSolver:  Solving for s, Initial residual = 0.0637249, Final residual = 0.0035807, No Iterations 2

Courant Number mean: 1.93209 max: 5.22903
deltaT = 0.00411255
Time = 0.121861

PIMPLE: iteration 1
smoothSolver:  Solving for Ux, Initial residual = 0.0107719, Final residual = 0.000605226, No Iterations 2
smoothSolver:  Solving for Uy, Initial residual = 0.0102376, Final residual = 0.000659418, No Iterations 2
smoothSolver:  Solving for Uz, Initial residual = 0.0528207, Final residual = 0.00288079, No Iterations 2
GAMG:  Solving for p, Initial residual = 0.0308037, Final residual = 0.000222584, No Iterations 5
time step continuity errors : sum local = 3.69652e-05, global = 1.02597e-05, cumulative = 0.000293915
GAMG:  Solving for p, Initial residual = 0.00834366, Final residual = 6.29518e-07, No Iterations 12
time step continuity errors : sum local = 1.05161e-07, global = 2.68473e-08, cumulative = 0.000293941
PIMPLE: iteration 2
smoothSolver:  Solving for Ux, Initial residual = 0.00577824, Final residual = 7.92457e-06, No Iterations 5
smoothSolver:  Solving for Uy, Initial residual = 0.00666234, Final residual = 4.21022e-06, No Iterations 6
smoothSolver:  Solving for Uz, Initial residual = 0.0395404, Final residual = 5.15765e-06, No Iterations 7
GAMG:  Solving for p, Initial residual = 0.026786, Final residual = 0.00019011, No Iterations 4
time step continuity errors : sum local = 3.37057e-05, global = 8.23668e-06, cumulative = 0.000302178
GAMG:  Solving for p, Initial residual = 0.00785272, Final residual = 6.79718e-07, No Iterations 10
time step continuity errors : sum local = 1.19854e-07, global = -7.66696e-08, cumulative = 0.000302101
smoothSolver:  Solving for epsilon, Initial residual = 0.0109785, Final residual = 5.17497e-06, No Iterations 6
smoothSolver:  Solving for k, Initial residual = 0.0326832, Final residual = 4.66416e-06, No Iterations 7
ExecutionTime = 2.03 s  ClockTime = 2 s

scalarTransport execute: s
smoothSolver:  Solving for s, Initial residual = 0.0568311, Final residual = 0.00315373, No Iterations 2

Courant Number mean: 1.86824 max: 5.06779
deltaT = 0.00411255
Time = 0.125974

PIMPLE: iteration 1
smoothSolver:  Solving for Ux, Initial residual = 0.0102154, Final residual = 0.000592867, No Iterations 2
smoothSolver:  Solving for Uy, Initial residual = 0.00972765, Final residual = 0.00062734, No Iterations 2
smoothSolver:  Solving for Uz, Initial residual = 0.0485316, Final residual = 0.00269446, No Iterations 2
GAMG:  Solving for p, Initial residual = 0.0302682, Final residual = 0.000216486, No Iterations 5
time step continuity errors : sum local = 3.55794e-05, global = 9.62532e-06, cumulative = 0.000311727
GAMG:  Solving for p, Initial residual = 0.00817507, Final residual = 5.43845e-07, No Iterations 12
time step continuity errors : sum local = 8.98289e-08, global = 2.38498e-08, cumulative = 0.000311751
PIMPLE: iteration 2
smoothSolver:  Solving for Ux, Initial residual = 0.00568803, Final residual = 7.69905e-06, No Iterations 5
smoothSolver:  Solving for Uy, Initial residual = 0.00643533, Final residual = 4.1032e-06, No Iterations 6
smoothSolver:  Solving for Uz, Initial residual = 0.0364298, Final residual = 4.93731e-06, No Iterations 7
GAMG:  Solving for p, Initial residual = 0.0264179, Final residual = 0.000176043, No Iterations 4
time step continuity errors : sum local = 3.17287e-05, global = 6.49757e-06, cumulative = 0.000318248
GAMG:  Solving for p, Initial residual = 0.00748192, Final residual = 7.40401e-07, No Iterations 10
time step continuity errors : sum local = 1.32626e-07, global = -8.4008e-08, cumulative = 0.000318164
smoothSolver:  Solving for epsilon, Initial residual = 0.0118997, Final residual = 5.51619e-06, No Iterations 6
smoothSolver:  Solving for k, Initial residual = 0.0327784, Final residual = 4.85823e-06, No Iterations 7
ExecutionTime = 2.1 s  ClockTime = 2 s

scalarTransport execute: s
smoothSolver:  Solving for s, Initial residual = 0.0521371, Final residual = 0.00299026, No Iterations 2

Courant Number mean: 1.89905 max: 5.16503
deltaT = 0.0038961
Time = 0.12987

PIMPLE: iteration 1
smoothSolver:  Solving for Ux, Initial residual = 0.00962607, Final residual = 0.000509863, No Iterations 2
smoothSolver:  Solving for Uy, Initial residual = 0.00942364, Final residual = 0.000579951, No Iterations 2
smoothSolver:  Solving for Uz, Initial residual = 0.045627, Final residual = 0.00251404, No Iterations 2
GAMG:  Solving for p, Initial residual = 0.0299333, Final residual = 0.000213117, No Iterations 5
time step continuity errors : sum local = 3.24654e-05, global = 8.3069e-06, cumulative = 0.000326471
GAMG:  Solving for p, Initial residual = 0.00788633, Final residual = 4.84314e-07, No Iterations 12
time step continuity errors : sum local = 7.41618e-08, global = 2.34585e-08, cumulative = 0.000326494
PIMPLE: iteration 2
smoothSolver:  Solving for Ux, Initial residual = 0.00510544, Final residual = 6.83458e-06, No Iterations 5
smoothSolver:  Solving for Uy, Initial residual = 0.0059866, Final residual = 3.83409e-06, No Iterations 6
smoothSolver:  Solving for Uz, Initial residual = 0.0331489, Final residual = 4.43907e-06, No Iterations 7
GAMG:  Solving for p, Initial residual = 0.026507, Final residual = 0.000185432, No Iterations 4
time step continuity errors : sum local = 3.0615e-05, global = 8.01778e-06, cumulative = 0.000334512
GAMG:  Solving for p, Initial residual = 0.00756784, Final residual = 7.06789e-07, No Iterations 10
time step continuity errors : sum local = 1.16116e-07, global = -6.97329e-08, cumulative = 0.000334443
smoothSolver:  Solving for epsilon, Initial residual = 0.0124405, Final residual = 5.87495e-06, No Iterations 6
smoothSolver:  Solving for k, Initial residual = 0.0321305, Final residual = 4.73298e-06, No Iterations 7
ExecutionTime = 2.17 s  ClockTime = 2 s

scalarTransport execute: s
smoothSolver:  Solving for s, Initial residual = 0.046705, Final residual = 0.00268749, No Iterations 2

Courant Number mean: 1.82617 max: 4.97471
deltaT = 0.0038961
Time = 0.133766

PIMPLE: iteration 1
smoothSolver:  Solving for Ux, Initial residual = 0.00905394, Final residual = 0.000532499, No Iterations 2
smoothSolver:  Solving for Uy, Initial residual = 0.00895262, Final residual = 0.000547348, No Iterations 2
smoothSolver:  Solving for Uz, Initial residual = 0.0426309, Final residual = 0.0023891, No Iterations 2
GAMG:  Solving for p, Initial residual = 0.0294044, Final residual = 0.000196249, No Iterations 5
time step continuity errors : sum local = 3.00342e-05, global = 8.56317e-06, cumulative = 0.000343006
GAMG:  Solving for p, Initial residual = 0.00748774, Final residual = 8.34264e-07, No Iterations 11
time step continuity errors : sum local = 1.28369e-07, global = -2.98526e-08, cumulative = 0.000342976
PIMPLE: iteration 2
smoothSolver:  Solving for Ux, Initial residual = 0.00511719, Final residual = 7.01701e-06, No Iterations 5
smoothSolver:  Solving for Uy, Initial residual = 0.00574464, Final residual = 3.66875e-06, No Iterations 6
smoothSolver:  Solving for Uz, Initial residual = 0.0311085, Final residual = 4.45169e-06, No Iterations 7
GAMG:  Solving for p, Initial residual = 0.026189, Final residual = 0.000165209, No Iterations 4
time step continuity errors : sum local = 2.72792e-05, global = 5.13031e-06, cumulative = 0.000348106
GAMG:  Solving for p, Initial residual = 0.00697298, Final residual = 5.97189e-07, No Iterations 10
time step continuity errors : sum local = 9.79495e-08, global = -5.90259e-08, cumulative = 0.000348047
smoothSolver:  Solving for epsilon, Initial residual = 0.0131933, Final residual = 5.98459e-06, No Iterations 6
smoothSolver:  Solving for k, Initial residual = 0.0324543, Final residual = 4.76249e-06, No Iterations 7
ExecutionTime = 2.23 s  ClockTime = 2 s

scalarTransport execute: s
smoothSolver:  Solving for s, Initial residual = 0.0431044, Final residual = 0.00258005, No Iterations 2

Courant Number mean: 1.85176 max: 5.05358
deltaT = 0.0038961
Time = 0.137662

PIMPLE: iteration 1
smoothSolver:  Solving for Ux, Initial residual = 0.00859673, Final residual = 0.000520497, No Iterations 2
smoothSolver:  Solving for Uy, Initial residual = 0.00870525, Final residual = 0.000520637, No Iterations 2
smoothSolver:  Solving for Uz, Initial residual = 0.0402703, Final residual = 0.00232452, No Iterations 2
GAMG:  Solving for p, Initial residual = 0.0288007, Final residual = 0.000192355, No Iterations 5
time step continuity errors : sum local = 2.99487e-05, global = 9.99306e-06, cumulative = 0.00035804
GAMG:  Solving for p, Initial residual = 0.0072375, Final residual = 9.43261e-07, No Iterations 11
time step continuity errors : sum local = 1.47903e-07, global = -4.06751e-08, cumulative = 0.000357999
PIMPLE: iteration 2
smoothSolver:  Solving for Ux, Initial residual = 0.00518121, Final residual = 7.10002e-06, No Iterations 5
smoothSolver:  Solving for Uy, Initial residual = 0.00555858, Final residual = 3.61647e-06, No Iterations 6
smoothSolver:  Solving for Uz, Initial residual = 0.0294191, Final residual = 4.29931e-06, No Iterations 7
GAMG:  Solving for p, Initial residual = 0.0266018, Final residual = 0.000188158, No Iterations 4
time step continuity errors : sum local = 3.10594e-05, global = 3.64098e-06, cumulative = 0.00036164
GAMG:  Solving for p, Initial residual = 0.00697286, Final residual = 7.25924e-07, No Iterations 10
time step continuity errors : sum local = 1.18802e-07, global = -7.11334e-08, cumulative = 0.000361569
smoothSolver:  Solving for epsilon, Initial residual = 0.0135729, Final residual = 6.53399e-06, No Iterations 6
smoothSolver:  Solving for k, Initial residual = 0.0317655, Final residual = 5.17467e-06, No Iterations 7
ExecutionTime = 2.3 s  ClockTime = 2 s

scalarTransport execute: s
smoothSolver:  Solving for s, Initial residual = 0.0397653, Final residual = 0.00247452, No Iterations 2

Courant Number mean: 1.87613 max: 5.12825
deltaT = 0.0038961
Time = 0.141558

PIMPLE: iteration 1
smoothSolver:  Solving for Ux, Initial residual = 0.00836683, Final residual = 0.000484338, No Iterations 2
smoothSolver:  Solving for Uy, Initial residual = 0.00859185, Final residual = 0.000499422, No Iterations 2
smoothSolver:  Solving for Uz, Initial residual = 0.0395321, Final residual = 0.0022684, No Iterations 2
GAMG:  Solving for p, Initial residual = 0.0299743, Final residual = 0.000215306, No Iterations 5
time step continuity errors : sum local = 3.31176e-05, global = 1.19201e-05, cumulative = 0.000373489
GAMG:  Solving for p, Initial residual = 0.00751771, Final residual = 9.55723e-07, No Iterations 11
time step continuity errors : sum local = 1.48179e-07, global = -3.72086e-08, cumulative = 0.000373452
PIMPLE: iteration 2
smoothSolver:  Solving for Ux, Initial residual = 0.00502069, Final residual = 7.33539e-06, No Iterations 5
smoothSolver:  Solving for Uy, Initial residual = 0.00534349, Final residual = 3.47755e-06, No Iterations 6
smoothSolver:  Solving for Uz, Initial residual = 0.0290165, Final residual = 4.11442e-06, No Iterations 7
GAMG:  Solving for p, Initial residual = 0.0270219, Final residual = 0.000223728, No Iterations 4
time step continuity errors : sum local = 3.68718e-05, global = 3.58144e-06, cumulative = 0.000377034
GAMG:  Solving for p, Initial residual = 0.00720747, Final residual = 6.67828e-07, No Iterations 10
time step continuity errors : sum local = 1.08987e-07, global = -6.81985e-08, cumulative = 0.000376965
smoothSolver:  Solving for epsilon, Initial residual = 0.0140843, Final residual = 6.96734e-06, No Iterations 6
smoothSolver:  Solving for k, Initial residual = 0.0319569, Final residual = 4.98115e-06, No Iterations 7
ExecutionTime = 2.37 s  ClockTime = 2 s

scalarTransport execute: s
smoothSolver:  Solving for s, Initial residual = 0.0373326, Final residual = 0.00230641, No Iterations 2

Courant Number mean: 1.89934 max: 5.20062
deltaT = 0.0036526
Time = 0.145211

PIMPLE: iteration 1
smoothSolver:  Solving for Ux, Initial residual = 0.00788814, Final residual = 0.000467431, No Iterations 2
smoothSolver:  Solving for Uy, Initial residual = 0.00826046, Final residual = 0.000463518, No Iterations 2
smoothSolver:  Solving for Uz, Initial residual = 0.0381216, Final residual = 0.00217434, No Iterations 2
GAMG:  Solving for p, Initial residual = 0.0283852, Final residual = 0.000204214, No Iterations 5
time step continuity errors : sum local = 2.93201e-05, global = 1.14267e-05, cumulative = 0.000388392
GAMG:  Solving for p, Initial residual = 0.00674562, Final residual = 5.69515e-07, No Iterations 12
time step continuity errors : sum local = 8.24288e-08, global = 1.43748e-08, cumulative = 0.000388407
PIMPLE: iteration 2
smoothSolver:  Solving for Ux, Initial residual = 0.00456627, Final residual = 6.54215e-06, No Iterations 5
smoothSolver:  Solving for Uy, Initial residual = 0.0049176, Final residual = 3.18349e-06, No Iterations 6
smoothSolver:  Solving for Uz, Initial residual = 0.0256236, Final residual = 3.51957e-06, No Iterations 7
GAMG:  Solving for p, Initial residual = 0.0262511, Final residual = 0.000231828, No Iterations 4
time step continuity errors : sum local = 3.44066e-05, global = 3.51907e-06, cumulative = 0.000391926
GAMG:  Solving for p, Initial residual = 0.00688452, Final residual = 5.44677e-07, No Iterations 10
time step continuity errors : sum local = 8.00598e-08, global = -4.99507e-08, cumulative = 0.000391876
smoothSolver:  Solving for epsilon, Initial residual = 0.0137957, Final residual = 6.26309e-06, No Iterations 6
smoothSolver:  Solving for k, Initial residual = 0.0309437, Final residual = 4.76409e-06, No Iterations 7
ExecutionTime = 2.44 s  ClockTime = 2 s

scalarTransport execute: s
smoothSolver:  Solving for s, Initial residual = 0.0339502, Final residual = 0.00204939, No Iterations 2

Courant Number mean: 1.80077 max: 4.94
deltaT = 0.0036526
Time = 0.148864

PIMPLE: iteration 1
smoothSolver:  Solving for Ux, Initial residual = 0.00752811, Final residual = 0.000459203, No Iterations 2
smoothSolver:  Solving for Uy, Initial residual = 0.00791264, Final residual = 0.000437988, No Iterations 2
smoothSolver:  Solving for Uz, Initial residual = 0.0344267, Final residual = 0.00203447, No Iterations 2
GAMG:  Solving for p, Initial residual = 0.0269151, Final residual = 0.000195852, No Iterations 5
time step continuity errors : sum local = 2.86442e-05, global = 1.14981e-05, cumulative = 0.000403374
GAMG:  Solving for p, Initial residual = 0.00636212, Final residual = 5.47894e-07, No Iterations 12
time step continuity errors : sum local = 8.07598e-08, global = 1.28929e-08, cumulative = 0.000403387
PIMPLE: iteration 2
smoothSolver:  Solving for Ux, Initial residual = 0.0045385, Final residual = 6.39797e-06, No Iterations 5
smoothSolver:  Solving for Uy, Initial residual = 0.00485943, Final residual = 3.26378e-06, No Iterations 6
smoothSolver:  Solving for Uz, Initial residual = 0.0246448, Final residual = 3.91359e-06, No Iterations 7
GAMG:  Solving for p, Initial residual = 0.0256754, Final residual = 0.000215164, No Iterations 4
time step continuity errors : sum local = 3.16407e-05, global = 2.81458e-06, cumulative = 0.000406201
GAMG:  Solving for p, Initial residual = 0.00669746, Final residual = 5.74711e-07, No Iterations 10
time step continuity errors : sum local = 8.37117e-08, global = -5.32625e-08, cumulative = 0.000406148
smoothSolver:  Solving for epsilon, Initial residual = 0.0143244, Final residual = 6.57123e-06, No Iterations 6
smoothSolver:  Solving for k, Initial residual = 0.03057, Final residual = 5.05915e-06, No Iterations 7
ExecutionTime = 2.5 s  ClockTime = 2 s

scalarTransport execute: s
smoothSolver:  Solving for s, Initial residual = 0.0319715, Final residual = 0.00192248, No Iterations 2

Courant Number mean: 1.8199 max: 4.97306
deltaT = 0.0036526
Time = 0.152516

PIMPLE: iteration 1
smoothSolver:  Solving for Ux, Initial residual = 0.00724557, Final residual = 0.000454281, No Iterations 2
smoothSolver:  Solving for Uy, Initial residual = 0.00769153, Final residual = 0.000425391, No Iterations 2
smoothSolver:  Solving for Uz, Initial residual = 0.0320172, Final residual = 0.00192554, No Iterations 2
GAMG:  Solving for p, Initial residual = 0.0269988, Final residual = 0.000172741, No Iterations 5
time step continuity errors : sum local = 2.50966e-05, global = 1.05982e-05, cumulative = 0.000416746
GAMG:  Solving for p, Initial residual = 0.00613895, Final residual = 9.03008e-07, No Iterations 11
time step continuity errors : sum local = 1.32274e-07, global = -4.60527e-08, cumulative = 0.0004167
PIMPLE: iteration 2
smoothSolver:  Solving for Ux, Initial residual = 0.00454262, Final residual = 6.33705e-06, No Iterations 5
smoothSolver:  Solving for Uy, Initial residual = 0.00470068, Final residual = 9.75691e-06, No Iterations 5
smoothSolver:  Solving for Uz, Initial residual = 0.0232281, Final residual = 3.98586e-06, No Iterations 7
GAMG:  Solving for p, Initial residual = 0.0251234, Final residual = 0.000196666, No Iterations 4
time step continuity errors : sum local = 2.96692e-05, global = 2.39469e-06, cumulative = 0.000419095
GAMG:  Solving for p, Initial residual = 0.00639759, Final residual = 5.32011e-07, No Iterations 10
time step continuity errors : sum local = 7.9567e-08, global = -4.92181e-08, cumulative = 0.000419046
smoothSolver:  Solving for epsilon, Initial residual = 0.0142937, Final residual = 6.91495e-06, No Iterations 6
smoothSolver:  Solving for k, Initial residual = 0.0304319, Final residual = 4.86685e-06, No Iterations 7
ExecutionTime = 2.57 s  ClockTime = 2 s

scalarTransport execute: s
smoothSolver:  Solving for s, Initial residual = 0.0300573, Final residual = 0.00183427, No Iterations 2

Courant Number mean: 1.83814 max: 5.03482
deltaT = 0.0036526
Time = 0.156169

PIMPLE: iteration 1
smoothSolver:  Solving for Ux, Initial residual = 0.00699128, Final residual = 0.000447184, No Iterations 2
smoothSolver:  Solving for Uy, Initial residual = 0.00738827, Final residual = 0.000409965, No Iterations 2
smoothSolver:  Solving for Uz, Initial residual = 0.0304234, Final residual = 0.00188094, No Iterations 2
GAMG:  Solving for p, Initial residual = 0.0269606, Final residual = 0.000157899, No Iterations 5
time step continuity errors : sum local = 2.27571e-05, global = 9.65264e-06, cumulative = 0.000428698
GAMG:  Solving for p, Initial residual = 0.00624307, Final residual = 7.28562e-07, No Iterations 11
time step continuity errors : sum local = 1.05844e-07, global = -2.92765e-08, cumulative = 0.000428669
PIMPLE: iteration 2
smoothSolver:  Solving for Ux, Initial residual = 0.00451741, Final residual = 6.65151e-06, No Iterations 5
smoothSolver:  Solving for Uy, Initial residual = 0.00459092, Final residual = 9.49446e-06, No Iterations 5
smoothSolver:  Solving for Uz, Initial residual = 0.0221364, Final residual = 3.69695e-06, No Iterations 7
GAMG:  Solving for p, Initial residual = 0.0251165, Final residual = 0.000180169, No Iterations 4
time step continuity errors : sum local = 2.71108e-05, global = 1.77773e-06, cumulative = 0.000430447
GAMG:  Solving for p, Initial residual = 0.00634947, Final residual = 4.06666e-07, No Iterations 10
time step continuity errors : sum local = 6.06185e-08, global = -3.62007e-08, cumulative = 0.000430411
smoothSolver:  Solving for epsilon, Initial residual = 0.0144252, Final residual = 6.71766e-06, No Iterations 6
smoothSolver:  Solving for k, Initial residual = 0.0298813, Final residual = 5.23674e-06, No Iterations 7
ExecutionTime = 2.64 s  ClockTime = 2 s

scalarTransport execute: s
smoothSolver:  Solving for s, Initial residual = 0.0284909, Final residual = 0.00174844, No Iterations 2

Courant Number mean: 1.85538 max: 5.10959
deltaT = 0.0036526
Time = 0.159821

PIMPLE: iteration 1
smoothSolver:  Solving for Ux, Initial residual = 0.00686597, Final residual = 0.000440303, No Iterations 2
smoothSolver:  Solving for Uy, Initial residual = 0.0072795, Final residual = 0.000388975, No Iterations 2
smoothSolver:  Solving for Uz, Initial residual = 0.0287789, Final residual = 0.00176321, No Iterations 2
GAMG:  Solving for p, Initial residual = 0.0263606, Final residual = 0.000160226, No Iterations 5
time step continuity errors : sum local = 2.37032e-05, global = 1.06383e-05, cumulative = 0.000441049
GAMG:  Solving for p, Initial residual = 0.0059009, Final residual = 7.64218e-07, No Iterations 11
time step continuity errors : sum local = 1.14013e-07, global = -3.94994e-08, cumulative = 0.000441009
PIMPLE: iteration 2
smoothSolver:  Solving for Ux, Initial residual = 0.00452485, Final residual = 6.79954e-06, No Iterations 5
smoothSolver:  Solving for Uy, Initial residual = 0.00449244, Final residual = 9.24912e-06, No Iterations 5
smoothSolver:  Solving for Uz, Initial residual = 0.021394, Final residual = 3.89354e-06, No Iterations 7
GAMG:  Solving for p, Initial residual = 0.0250624, Final residual = 0.000189139, No Iterations 4
time step continuity errors : sum local = 2.90735e-05, global = 2.12671e-06, cumulative = 0.000443136
GAMG:  Solving for p, Initial residual = 0.00621917, Final residual = 3.80407e-07, No Iterations 10
time step continuity errors : sum local = 5.79024e-08, global = -3.43321e-08, cumulative = 0.000443102
smoothSolver:  Solving for epsilon, Initial residual = 0.0142183, Final residual = 6.83126e-06, No Iterations 6
smoothSolver:  Solving for k, Initial residual = 0.0297628, Final residual = 4.90303e-06, No Iterations 7
ExecutionTime = 2.71 s  ClockTime = 3 s

scalarTransport execute: s
smoothSolver:  Solving for s, Initial residual = 0.0269335, Final residual = 0.00163595, No Iterations 2

Courant Number mean: 1.87194 max: 5.17227
deltaT = 0.0036526
Time = 0.163474

PIMPLE: iteration 1
smoothSolver:  Solving for Ux, Initial residual = 0.0066457, Final residual = 0.000440809, No Iterations 2
smoothSolver:  Solving for Uy, Initial residual = 0.00701161, Final residual = 0.00037736, No Iterations 2
smoothSolver:  Solving for Uz, Initial residual = 0.028019, Final residual = 0.00173733, No Iterations 2
GAMG:  Solving for p, Initial residual = 0.0265089, Final residual = 0.000253349, No Iterations 4
time step continuity errors : sum local = 3.75297e-05, global = -3.42495e-06, cumulative = 0.000439677
GAMG:  Solving for p, Initial residual = 0.00596717, Final residual = 5.68677e-07, No Iterations 10
time step continuity errors : sum local = 8.49216e-08, global = 3.9207e-08, cumulative = 0.000439716
PIMPLE: iteration 2
smoothSolver:  Solving for Ux, Initial residual = 0.00456862, Final residual = 6.60448e-06, No Iterations 5
smoothSolver:  Solving for Uy, Initial residual = 0.00445019, Final residual = 8.95e-06, No Iterations 5
smoothSolver:  Solving for Uz, Initial residual = 0.0205987, Final residual = 3.84572e-06, No Iterations 7
GAMG:  Solving for p, Initial residual = 0.0255098, Final residual = 0.000171934, No Iterations 4
time step continuity errors : sum local = 2.61103e-05, global = 1.82466e-06, cumulative = 0.000441541
GAMG:  Solving for p, Initial residual = 0.00620329, Final residual = 7.21482e-07, No Iterations 9
time step continuity errors : sum local = 1.08416e-07, global = 2.28793e-08, cumulative = 0.000441564
smoothSolver:  Solving for epsilon, Initial residual = 0.0142535, Final residual = 6.90748e-06, No Iterations 6
smoothSolver:  Solving for k, Initial residual = 0.029324, Final residual = 4.97005e-06, No Iterations 7
ExecutionTime = 2.77 s  ClockTime = 3 s

scalarTransport execute: s
smoothSolver:  Solving for s, Initial residual = 0.0255175, Final residual = 0.00157687, No Iterations 2

Courant Number mean: 1.88765 max: 5.22733
deltaT = 0.0036526
Time = 0.167127

PIMPLE: iteration 1
smoothSolver:  Solving for Ux, Initial residual = 0.00648004, Final residual = 0.000426104, No Iterations 2
smoothSolver:  Solving for Uy, Initial residual = 0.00685595, Final residual = 0.000363048, No Iterations 2
smoothSolver:  Solving for Uz, Initial residual = 0.0273569, Final residual = 0.0016756, No Iterations 2
GAMG:  Solving for p, Initial residual = 0.0256251, Final residual = 0.000244874, No Iterations 4
time step continuity errors : sum local = 3.67069e-05, global = -2.94441e-06, cumulative = 0.000438619
GAMG:  Solving for p, Initial residual = 0.00598935, Final residual = 6.43228e-07, No Iterations 10
time step continuity errors : sum local = 9.7239e-08, global = 4.02668e-08, cumulative = 0.000438659
PIMPLE: iteration 2
smoothSolver:  Solving for Ux, Initial residual = 0.00443243, Final residual = 6.6833e-06, No Iterations 5
smoothSolver:  Solving for Uy, Initial residual = 0.00432067, Final residual = 8.76403e-06, No Iterations 5
smoothSolver:  Solving for Uz, Initial residual = 0.0198952, Final residual = 3.83281e-06, No Iterations 7
GAMG:  Solving for p, Initial residual = 0.0251017, Final residual = 0.000175953, No Iterations 4
time step continuity errors : sum local = 2.69971e-05, global = 1.70872e-06, cumulative = 0.000440368
GAMG:  Solving for p, Initial residual = 0.00621174, Final residual = 9.60737e-07, No Iterations 8
time step continuity errors : sum local = 1.45791e-07, global = -9.29315e-08, cumulative = 0.000440275
smoothSolver:  Solving for epsilon, Initial residual = 0.0141962, Final residual = 7.33872e-06, No Iterations 6
smoothSolver:  Solving for k, Initial residual = 0.0288571, Final residual = 5.0448e-06, No Iterations 7
ExecutionTime = 2.83 s  ClockTime = 3 s

scalarTransport execute: s
smoothSolver:  Solving for s, Initial residual = 0.0244403, Final residual = 0.00150064, No Iterations 2

Courant Number mean: 1.90257 max: 5.28158
deltaT = 0.00328734
Time = 0.170414

PIMPLE: iteration 1
smoothSolver:  Solving for Ux, Initial residual = 0.0061157, Final residual = 0.000381627, No Iterations 2
smoothSolver:  Solving for Uy, Initial residual = 0.00655621, Final residual = 0.000336402, No Iterations 2
smoothSolver:  Solving for Uz, Initial residual = 0.0264301, Final residual = 0.00159267, No Iterations 2
GAMG:  Solving for p, Initial residual = 0.0251001, Final residual = 0.000228205, No Iterations 4
time step continuity errors : sum local = 2.97256e-05, global = -2.01847e-06, cumulative = 0.000438257
GAMG:  Solving for p, Initial residual = 0.00564749, Final residual = 6.24101e-07, No Iterations 10
time step continuity errors : sum local = 8.18066e-08, global = 3.49662e-08, cumulative = 0.000438292
PIMPLE: iteration 2
smoothSolver:  Solving for Ux, Initial residual = 0.00390759, Final residual = 5.60356e-06, No Iterations 5
smoothSolver:  Solving for Uy, Initial residual = 0.00397518, Final residual = 7.89097e-06, No Iterations 5
smoothSolver:  Solving for Uz, Initial residual = 0.0179263, Final residual = 3.41937e-06, No Iterations 7
GAMG:  Solving for p, Initial residual = 0.0243915, Final residual = 0.000173242, No Iterations 4
time step continuity errors : sum local = 2.28239e-05, global = 1.96977e-06, cumulative = 0.000440261
GAMG:  Solving for p, Initial residual = 0.00595795, Final residual = 6.95303e-07, No Iterations 9
time step continuity errors : sum local = 9.08304e-08, global = 1.92407e-08, cumulative = 0.000440281
smoothSolver:  Solving for epsilon, Initial residual = 0.0138094, Final residual = 6.53664e-06, No Iterations 6
smoothSolver:  Solving for k, Initial residual = 0.0274635, Final residual = 4.46345e-06, No Iterations 7
ExecutionTime = 2.9 s  ClockTime = 3 s

scalarTransport execute: s
smoothSolver:  Solving for s, Initial residual = 0.022368, Final residual = 0.00134693, No Iterations 2

Courant Number mean: 1.72484 max: 4.7989
deltaT = 0.00328734
Time = 0.173701

PIMPLE: iteration 1
smoothSolver:  Solving for Ux, Initial residual = 0.00592786, Final residual = 0.000396404, No Iterations 2
smoothSolver:  Solving for Uy, Initial residual = 0.00637723, Final residual = 0.000319604, No Iterations 2
smoothSolver:  Solving for Uz, Initial residual = 0.0259447, Final residual = 0.00162126, No Iterations 2
GAMG:  Solving for p, Initial residual = 0.0241982, Final residual = 0.000239454, No Iterations 4
time step continuity errors : sum local = 3.14436e-05, global = -2.45246e-06, cumulative = 0.000437828
GAMG:  Solving for p, Initial residual = 0.00556296, Final residual = 4.47795e-07, No Iterations 10
time step continuity errors : sum local = 5.91853e-08, global = 2.98772e-08, cumulative = 0.000437858
PIMPLE: iteration 2
smoothSolver:  Solving for Ux, Initial residual = 0.00386489, Final residual = 5.59302e-06, No Iterations 5
smoothSolver:  Solving for Uy, Initial residual = 0.00388197, Final residual = 7.60879e-06, No Iterations 5
smoothSolver:  Solving for Uz, Initial residual = 0.0174647, Final residual = 3.40784e-06, No Iterations 7
GAMG:  Solving for p, Initial residual = 0.0238934, Final residual = 0.000179308, No Iterations 4
time step continuity errors : sum local = 2.38827e-05, global = 2.01808e-06, cumulative = 0.000439876
GAMG:  Solving for p, Initial residual = 0.00578596, Final residual = 7.16605e-07, No Iterations 8
time step continuity errors : sum local = 9.46418e-08, global = -5.91022e-08, cumulative = 0.000439817
smoothSolver:  Solving for epsilon, Initial residual = 0.0135009, Final residual = 6.48996e-06, No Iterations 6
[...]
ExecutionTime = 62.78 s  ClockTime = 63 s

scalarTransport execute: s
smoothSolver:  Solving for s, Initial residual = 0.000258626, Final residual = 9.49189e-06, No Iterations 2

Courant Number mean: 2.53604 max: 4.98517
deltaT = 0.00192308
Time = 1.98269

PIMPLE: iteration 1
smoothSolver:  Solving for Ux, Initial residual = 0.000935527, Final residual = 3.1397e-05, No Iterations 2
smoothSolver:  Solving for Uy, Initial residual = 0.00170197, Final residual = 0.000167136, No Iterations 1
smoothSolver:  Solving for Uz, Initial residual = 0.00373914, Final residual = 0.000130246, No Iterations 2
GAMG:  Solving for p, Initial residual = 0.0225125, Final residual = 0.000184757, No Iterations 3
time step continuity errors : sum local = 1.81213e-05, global = 6.75779e-07, cumulative = -0.000199758
GAMG:  Solving for p, Initial residual = 0.00523719, Final residual = 8.52353e-07, No Iterations 9
time step continuity errors : sum local = 8.35734e-08, global = 4.99108e-08, cumulative = -0.000199709
PIMPLE: iteration 2
smoothSolver:  Solving for Ux, Initial residual = 0.000836554, Final residual = 3.59976e-06, No Iterations 4
smoothSolver:  Solving for Uy, Initial residual = 0.00143676, Final residual = 5.40281e-06, No Iterations 4
smoothSolver:  Solving for Uz, Initial residual = 0.00351163, Final residual = 7.40604e-06, No Iterations 5
GAMG:  Solving for p, Initial residual = 0.0235409, Final residual = 0.000225572, No Iterations 3
time step continuity errors : sum local = 2.24398e-05, global = -1.07114e-06, cumulative = -0.00020078
GAMG:  Solving for p, Initial residual = 0.00452784, Final residual = 7.06297e-07, No Iterations 8
time step continuity errors : sum local = 7.00688e-08, global = 8.83556e-09, cumulative = -0.000200771
smoothSolver:  Solving for epsilon, Initial residual = 0.00108208, Final residual = 3.1855e-06, No Iterations 3
smoothSolver:  Solving for k, Initial residual = 0.00158238, Final residual = 8.80242e-06, No Iterations 3
ExecutionTime = 62.85 s  ClockTime = 63 s

scalarTransport execute: s
smoothSolver:  Solving for s, Initial residual = 0.00025502, Final residual = 9.76518e-06, No Iterations 2

Courant Number mean: 2.53603 max: 4.98582
deltaT = 0.00192308
Time = 1.98462

PIMPLE: iteration 1
smoothSolver:  Solving for Ux, Initial residual = 0.000931716, Final residual = 3.14701e-05, No Iterations 2
smoothSolver:  Solving for Uy, Initial residual = 0.00171, Final residual = 0.000166364, No Iterations 1
smoothSolver:  Solving for Uz, Initial residual = 0.00371953, Final residual = 0.000126902, No Iterations 2
GAMG:  Solving for p, Initial residual = 0.0227112, Final residual = 0.000189222, No Iterations 3
time step continuity errors : sum local = 1.85607e-05, global = 6.58333e-07, cumulative = -0.000200113
GAMG:  Solving for p, Initial residual = 0.00527757, Final residual = 8.51043e-07, No Iterations 9
time step continuity errors : sum local = 8.34525e-08, global = 4.9771e-08, cumulative = -0.000200063
PIMPLE: iteration 2
smoothSolver:  Solving for Ux, Initial residual = 0.000833899, Final residual = 3.59248e-06, No Iterations 4
smoothSolver:  Solving for Uy, Initial residual = 0.00143344, Final residual = 5.32289e-06, No Iterations 4
smoothSolver:  Solving for Uz, Initial residual = 0.00351489, Final residual = 7.3992e-06, No Iterations 5
GAMG:  Solving for p, Initial residual = 0.0234289, Final residual = 0.000222887, No Iterations 3
time step continuity errors : sum local = 2.216e-05, global = -1.05357e-06, cumulative = -0.000201116
GAMG:  Solving for p, Initial residual = 0.00451173, Final residual = 7.20402e-07, No Iterations 8
time step continuity errors : sum local = 7.14282e-08, global = 8.63873e-09, cumulative = -0.000201108
smoothSolver:  Solving for epsilon, Initial residual = 0.00114238, Final residual = 3.54424e-06, No Iterations 3
smoothSolver:  Solving for k, Initial residual = 0.00151857, Final residual = 9.87468e-06, No Iterations 3
ExecutionTime = 62.92 s  ClockTime = 63 s

scalarTransport execute: s
smoothSolver:  Solving for s, Initial residual = 0.000268083, Final residual = 9.68007e-06, No Iterations 2

Courant Number mean: 2.53603 max: 4.98549
deltaT = 0.00192308
Time = 1.98654

PIMPLE: iteration 1
smoothSolver:  Solving for Ux, Initial residual = 0.000931977, Final residual = 3.13442e-05, No Iterations 2
smoothSolver:  Solving for Uy, Initial residual = 0.00169839, Final residual = 0.000166435, No Iterations 1
smoothSolver:  Solving for Uz, Initial residual = 0.0037288, Final residual = 0.000129185, No Iterations 2
GAMG:  Solving for p, Initial residual = 0.0224941, Final residual = 0.000184044, No Iterations 3
time step continuity errors : sum local = 1.8051e-05, global = 6.73425e-07, cumulative = -0.000200434
GAMG:  Solving for p, Initial residual = 0.00522008, Final residual = 8.5248e-07, No Iterations 9
time step continuity errors : sum local = 8.35858e-08, global = 4.98787e-08, cumulative = -0.000200384
PIMPLE: iteration 2
smoothSolver:  Solving for Ux, Initial residual = 0.00083672, Final residual = 3.59114e-06, No Iterations 4
smoothSolver:  Solving for Uy, Initial residual = 0.00143602, Final residual = 5.40363e-06, No Iterations 4
smoothSolver:  Solving for Uz, Initial residual = 0.00350786, Final residual = 7.48057e-06, No Iterations 5
GAMG:  Solving for p, Initial residual = 0.023512, Final residual = 0.000225293, No Iterations 3
time step continuity errors : sum local = 2.24124e-05, global = -1.07238e-06, cumulative = -0.000201457
GAMG:  Solving for p, Initial residual = 0.00451566, Final residual = 7.0338e-07, No Iterations 8
time step continuity errors : sum local = 6.97806e-08, global = 8.8326e-09, cumulative = -0.000201448
smoothSolver:  Solving for epsilon, Initial residual = 0.00108144, Final residual = 3.91533e-06, No Iterations 3
smoothSolver:  Solving for k, Initial residual = 0.00145801, Final residual = 8.87209e-06, No Iterations 3
ExecutionTime = 62.98 s  ClockTime = 63 s

scalarTransport execute: s
smoothSolver:  Solving for s, Initial residual = 0.000252821, Final residual = 9.38383e-06, No Iterations 2

Courant Number mean: 2.53603 max: 4.98581
deltaT = 0.00192308
Time = 1.98846

PIMPLE: iteration 1
smoothSolver:  Solving for Ux, Initial residual = 0.000931761, Final residual = 3.15748e-05, No Iterations 2
smoothSolver:  Solving for Uy, Initial residual = 0.00170924, Final residual = 0.000166411, No Iterations 1
smoothSolver:  Solving for Uz, Initial residual = 0.0037128, Final residual = 0.000126473, No Iterations 2
GAMG:  Solving for p, Initial residual = 0.0226296, Final residual = 0.000189356, No Iterations 3
time step continuity errors : sum local = 1.85743e-05, global = 6.58206e-07, cumulative = -0.00020079
GAMG:  Solving for p, Initial residual = 0.00527204, Final residual = 8.49983e-07, No Iterations 9
time step continuity errors : sum local = 8.33493e-08, global = 4.97121e-08, cumulative = -0.00020074
PIMPLE: iteration 2
smoothSolver:  Solving for Ux, Initial residual = 0.000834434, Final residual = 3.58851e-06, No Iterations 4
smoothSolver:  Solving for Uy, Initial residual = 0.0014338, Final residual = 5.32162e-06, No Iterations 4
smoothSolver:  Solving for Uz, Initial residual = 0.00350851, Final residual = 7.43836e-06, No Iterations 5
GAMG:  Solving for p, Initial residual = 0.023476, Final residual = 0.000223088, No Iterations 3
time step continuity errors : sum local = 2.21805e-05, global = -1.05549e-06, cumulative = -0.000201795
GAMG:  Solving for p, Initial residual = 0.00451212, Final residual = 7.21038e-07, No Iterations 8
time step continuity errors : sum local = 7.1493e-08, global = 8.65086e-09, cumulative = -0.000201787
smoothSolver:  Solving for epsilon, Initial residual = 0.00115015, Final residual = 4.50762e-06, No Iterations 3
smoothSolver:  Solving for k, Initial residual = 0.00151714, Final residual = 2.70498e-06, No Iterations 4
ExecutionTime = 63.05 s  ClockTime = 63 s

scalarTransport execute: s
smoothSolver:  Solving for s, Initial residual = 0.000257578, Final residual = 9.41624e-06, No Iterations 2

Courant Number mean: 2.53603 max: 4.9851
deltaT = 0.00192308
Time = 1.99038

PIMPLE: iteration 1
smoothSolver:  Solving for Ux, Initial residual = 0.000933859, Final residual = 3.14167e-05, No Iterations 2
smoothSolver:  Solving for Uy, Initial residual = 0.00170091, Final residual = 0.000166666, No Iterations 1
smoothSolver:  Solving for Uz, Initial residual = 0.00373152, Final residual = 0.000128997, No Iterations 2
GAMG:  Solving for p, Initial residual = 0.0224943, Final residual = 0.000184903, No Iterations 3
time step continuity errors : sum local = 1.81357e-05, global = 6.76118e-07, cumulative = -0.000201111
GAMG:  Solving for p, Initial residual = 0.00523248, Final residual = 8.53275e-07, No Iterations 9
time step continuity errors : sum local = 8.36662e-08, global = 4.99504e-08, cumulative = -0.000201061
PIMPLE: iteration 2
smoothSolver:  Solving for Ux, Initial residual = 0.000836338, Final residual = 3.5902e-06, No Iterations 4
smoothSolver:  Solving for Uy, Initial residual = 0.00143568, Final residual = 5.40366e-06, No Iterations 4
smoothSolver:  Solving for Uz, Initial residual = 0.00350415, Final residual = 7.49979e-06, No Iterations 5
GAMG:  Solving for p, Initial residual = 0.0235285, Final residual = 0.000225169, No Iterations 3
time step continuity errors : sum local = 2.23995e-05, global = -1.06832e-06, cumulative = -0.000202129
GAMG:  Solving for p, Initial residual = 0.00451592, Final residual = 7.04245e-07, No Iterations 8
time step continuity errors : sum local = 6.9866e-08, global = 8.83454e-09, cumulative = -0.00020212
smoothSolver:  Solving for epsilon, Initial residual = 0.00112147, Final residual = 3.9836e-06, No Iterations 3
smoothSolver:  Solving for k, Initial residual = 0.00155991, Final residual = 2.86995e-06, No Iterations 4
ExecutionTime = 63.12 s  ClockTime = 63 s

scalarTransport execute: s
smoothSolver:  Solving for s, Initial residual = 0.000254533, Final residual = 9.66972e-06, No Iterations 2

Courant Number mean: 2.53604 max: 4.98535
deltaT = 0.00192308
Time = 1.99231

PIMPLE: iteration 1
smoothSolver:  Solving for Ux, Initial residual = 0.000932082, Final residual = 3.1524e-05, No Iterations 2
smoothSolver:  Solving for Uy, Initial residual = 0.00171019, Final residual = 0.000166354, No Iterations 1
smoothSolver:  Solving for Uz, Initial residual = 0.00371414, Final residual = 0.000126587, No Iterations 2
GAMG:  Solving for p, Initial residual = 0.0226651, Final residual = 0.000188954, No Iterations 3
time step continuity errors : sum local = 1.85343e-05, global = 6.50801e-07, cumulative = -0.000201469
GAMG:  Solving for p, Initial residual = 0.00526513, Final residual = 8.4672e-07, No Iterations 9
time step continuity errors : sum local = 8.30275e-08, global = 4.95432e-08, cumulative = -0.00020142
PIMPLE: iteration 2
smoothSolver:  Solving for Ux, Initial residual = 0.000835513, Final residual = 3.59013e-06, No Iterations 4
smoothSolver:  Solving for Uy, Initial residual = 0.00143497, Final residual = 5.32485e-06, No Iterations 4
smoothSolver:  Solving for Uz, Initial residual = 0.00350987, Final residual = 7.41127e-06, No Iterations 5
GAMG:  Solving for p, Initial residual = 0.0235156, Final residual = 0.000223353, No Iterations 3
time step continuity errors : sum local = 2.22063e-05, global = -1.05834e-06, cumulative = -0.000202478
GAMG:  Solving for p, Initial residual = 0.00451635, Final residual = 7.19762e-07, No Iterations 8
time step continuity errors : sum local = 7.1366e-08, global = 8.63613e-09, cumulative = -0.00020247
smoothSolver:  Solving for epsilon, Initial residual = 0.00120511, Final residual = 3.60861e-06, No Iterations 3
smoothSolver:  Solving for k, Initial residual = 0.0016736, Final residual = 9.57776e-06, No Iterations 3
ExecutionTime = 63.2 s  ClockTime = 63 s

scalarTransport execute: s
smoothSolver:  Solving for s, Initial residual = 0.000267434, Final residual = 9.65714e-06, No Iterations 2

Courant Number mean: 2.53604 max: 4.98476
deltaT = 0.00192308
Time = 1.99423

PIMPLE: iteration 1
smoothSolver:  Solving for Ux, Initial residual = 0.000933296, Final residual = 3.13404e-05, No Iterations 2
smoothSolver:  Solving for Uy, Initial residual = 0.00170202, Final residual = 0.00016665, No Iterations 1
smoothSolver:  Solving for Uz, Initial residual = 0.0037396, Final residual = 0.000130424, No Iterations 2
GAMG:  Solving for p, Initial residual = 0.0225221, Final residual = 0.000184751, No Iterations 3
time step continuity errors : sum local = 1.81206e-05, global = 6.75416e-07, cumulative = -0.000201794
GAMG:  Solving for p, Initial residual = 0.00522828, Final residual = 8.51266e-07, No Iterations 9
time step continuity errors : sum local = 8.34667e-08, global = 4.98504e-08, cumulative = -0.000201744
PIMPLE: iteration 2
smoothSolver:  Solving for Ux, Initial residual = 0.000836494, Final residual = 3.591e-06, No Iterations 4
smoothSolver:  Solving for Uy, Initial residual = 0.00143552, Final residual = 5.40399e-06, No Iterations 4
smoothSolver:  Solving for Uz, Initial residual = 0.00350452, Final residual = 7.43756e-06, No Iterations 5
GAMG:  Solving for p, Initial residual = 0.0235331, Final residual = 0.000225493, No Iterations 3
time step continuity errors : sum local = 2.24325e-05, global = -1.07203e-06, cumulative = -0.000202816
GAMG:  Solving for p, Initial residual = 0.00452511, Final residual = 7.04769e-07, No Iterations 8
time step continuity errors : sum local = 6.99194e-08, global = 8.83949e-09, cumulative = -0.000202808
smoothSolver:  Solving for epsilon, Initial residual = 0.00113538, Final residual = 4.06981e-06, No Iterations 3
smoothSolver:  Solving for k, Initial residual = 0.00163963, Final residual = 9.40699e-06, No Iterations 3
ExecutionTime = 63.26 s  ClockTime = 63 s

scalarTransport execute: s
smoothSolver:  Solving for s, Initial residual = 0.000253039, Final residual = 9.42494e-06, No Iterations 2

Courant Number mean: 2.53604 max: 4.9852
deltaT = 0.00192308
Time = 1.99615

PIMPLE: iteration 1
smoothSolver:  Solving for Ux, Initial residual = 0.000931553, Final residual = 3.15256e-05, No Iterations 2
smoothSolver:  Solving for Uy, Initial residual = 0.00171023, Final residual = 0.000166436, No Iterations 1
smoothSolver:  Solving for Uz, Initial residual = 0.00370584, Final residual = 0.000126116, No Iterations 2
GAMG:  Solving for p, Initial residual = 0.0227129, Final residual = 0.000189338, No Iterations 3
time step continuity errors : sum local = 1.85724e-05, global = 6.58673e-07, cumulative = -0.000202149
GAMG:  Solving for p, Initial residual = 0.00528288, Final residual = 8.5062e-07, No Iterations 9
time step continuity errors : sum local = 8.34125e-08, global = 4.97514e-08, cumulative = -0.000202099
PIMPLE: iteration 2
smoothSolver:  Solving for Ux, Initial residual = 0.000833543, Final residual = 3.59052e-06, No Iterations 4
smoothSolver:  Solving for Uy, Initial residual = 0.0014333, Final residual = 5.32221e-06, No Iterations 4
smoothSolver:  Solving for Uz, Initial residual = 0.00351261, Final residual = 7.4381e-06, No Iterations 5
GAMG:  Solving for p, Initial residual = 0.0234379, Final residual = 0.000223001, No Iterations 3
time step continuity errors : sum local = 2.21718e-05, global = -1.05444e-06, cumulative = -0.000203154
GAMG:  Solving for p, Initial residual = 0.00451067, Final residual = 7.20667e-07, No Iterations 8
time step continuity errors : sum local = 7.14556e-08, global = 8.64195e-09, cumulative = -0.000203145
smoothSolver:  Solving for epsilon, Initial residual = 0.0011846, Final residual = 4.43001e-06, No Iterations 3
smoothSolver:  Solving for k, Initial residual = 0.00163535, Final residual = 9.63635e-06, No Iterations 3
ExecutionTime = 63.33 s  ClockTime = 63 s

scalarTransport execute: s
smoothSolver:  Solving for s, Initial residual = 0.000258925, Final residual = 9.51231e-06, No Iterations 2

Courant Number mean: 2.53604 max: 4.98441
deltaT = 0.00192308
Time = 1.99808

PIMPLE: iteration 1
smoothSolver:  Solving for Ux, Initial residual = 0.000933333, Final residual = 3.13846e-05, No Iterations 2
smoothSolver:  Solving for Uy, Initial residual = 0.00169946, Final residual = 0.000166675, No Iterations 1
smoothSolver:  Solving for Uz, Initial residual = 0.00373536, Final residual = 0.000129933, No Iterations 2
GAMG:  Solving for p, Initial residual = 0.0225056, Final residual = 0.000184092, No Iterations 3
time step continuity errors : sum local = 1.80562e-05, global = 6.71713e-07, cumulative = -0.000202473
GAMG:  Solving for p, Initial residual = 0.00522484, Final residual = 8.524e-07, No Iterations 9
time step continuity errors : sum local = 8.35796e-08, global = 4.98797e-08, cumulative = -0.000202423
PIMPLE: iteration 2
smoothSolver:  Solving for Ux, Initial residual = 0.000835903, Final residual = 3.59921e-06, No Iterations 4
smoothSolver:  Solving for Uy, Initial residual = 0.0014364, Final residual = 5.41783e-06, No Iterations 4
smoothSolver:  Solving for Uz, Initial residual = 0.00351164, Final residual = 7.49154e-06, No Iterations 5
GAMG:  Solving for p, Initial residual = 0.0235241, Final residual = 0.000225542, No Iterations 3
time step continuity errors : sum local = 2.2437e-05, global = -1.07144e-06, cumulative = -0.000203495
GAMG:  Solving for p, Initial residual = 0.0045203, Final residual = 7.04974e-07, No Iterations 8
time step continuity errors : sum local = 6.99371e-08, global = 8.85269e-09, cumulative = -0.000203486
smoothSolver:  Solving for epsilon, Initial residual = 0.00110479, Final residual = 3.4857e-06, No Iterations 3
smoothSolver:  Solving for k, Initial residual = 0.00156033, Final residual = 8.85176e-06, No Iterations 3
ExecutionTime = 63.4 s  ClockTime = 63 s

scalarTransport execute: s
smoothSolver:  Solving for s, Initial residual = 0.000255444, Final residual = 9.7475e-06, No Iterations 2

Courant Number mean: 2.53604 max: 4.98436
deltaT = 0.00192308
Time = 2

PIMPLE: iteration 1
smoothSolver:  Solving for Ux, Initial residual = 0.000931565, Final residual = 3.15299e-05, No Iterations 2
smoothSolver:  Solving for Uy, Initial residual = 0.00171154, Final residual = 0.000166476, No Iterations 1
smoothSolver:  Solving for Uz, Initial residual = 0.00371859, Final residual = 0.000127057, No Iterations 2
GAMG:  Solving for p, Initial residual = 0.022661, Final residual = 0.000189243, No Iterations 3
time step continuity errors : sum local = 1.8563e-05, global = 6.52376e-07, cumulative = -0.000202834
GAMG:  Solving for p, Initial residual = 0.00526913, Final residual = 8.52398e-07, No Iterations 9
time step continuity errors : sum local = 8.35854e-08, global = 4.98256e-08, cumulative = -0.000202784
PIMPLE: iteration 2
smoothSolver:  Solving for Ux, Initial residual = 0.000833331, Final residual = 3.58668e-06, No Iterations 4
smoothSolver:  Solving for Uy, Initial residual = 0.001434, Final residual = 5.31587e-06, No Iterations 4
smoothSolver:  Solving for Uz, Initial residual = 0.00351839, Final residual = 7.44501e-06, No Iterations 5
GAMG:  Solving for p, Initial residual = 0.0234668, Final residual = 0.000222977, No Iterations 3
time step continuity errors : sum local = 2.2169e-05, global = -1.05533e-06, cumulative = -0.000203839
GAMG:  Solving for p, Initial residual = 0.0045121, Final residual = 7.22749e-07, No Iterations 8
time step continuity errors : sum local = 7.16611e-08, global = 8.68497e-09, cumulative = -0.00020383
smoothSolver:  Solving for epsilon, Initial residual = 0.00116859, Final residual = 3.40321e-06, No Iterations 3
smoothSolver:  Solving for k, Initial residual = 0.00158882, Final residual = 2.7529e-06, No Iterations 4
ExecutionTime = 63.51 s  ClockTime = 63 s

scalarTransport execute: s
smoothSolver:  Solving for s, Initial residual = 0.000267821, Final residual = 9.6865e-06, No Iterations 2

scalarTransport write: sTransport
	s

End

