/*---------------------------------------------------------------------------*\
| =========                 |                                                 |
| \\      /  F ield         | OpenFOAM: The Open Source CFD Toolbox           |
|  \\    /   O peration     | Version:  2312                                  |
|   \\  /    A nd           | Website:  www.openfoam.com                      |
|    \\/     M anipulation  |                                                 |
\*---------------------------------------------------------------------------*/
Build  : _1d8f0d55f7-20231221 OPENFOAM=2312 version=v2312
Arch   : "LSB;label=32;scalar=64"
Exec   : pimpleFoam
Date   : Mar 05 2024
Time   : 14:33:02
Host   : popeye03
PID    : 1766280
I/O    : uncollated
Case   : /home/user03/OpenFOAM/user03-v2312/run/TJunction
nProcs : 1
trapFpe: Floating point exception trapping enabled (FOAM_SIGFPE).
fileModificationChecking : Monitoring run-time modified files using timeStampMaster (fileModificationSkew 5, maxFileModificationPolls 20)
allowSystemOperations : Allowing user-supplied system call operations

// * * * * * * * * * * * * * * * * * * * * * * * * * * * * * * * * * * * * * //
Create time

Create mesh for time = 0


PIMPLE: no residual control data found. Calculations will employ 2 corrector loops

Reading field p

Reading field U

Reading/calculating face flux field phi

Selecting incompressible transport model Newtonian
Selecting turbulence model type RAS
Selecting RAS turbulence model kEpsilon
RAS
{
    RASModel        kEpsilon;
    turbulence      on;
    printCoeffs     on;
    Cmu             0.09;
    C1              1.44;
    C2              1.92;
    C3              0;
    sigmak          1;
    sigmaEps        1.3;
}

No MRF models present

No finite volume options present
Courant Number mean: 0 max: 0
Courant Number mean: 0 max: 0

Starting time loop

Selecting finite volume options type scalarSemiImplicitSource
    Source: unitySource
    - selecting all cells
    - selected 3875 cell(s) with volume 0.000248
Courant Number mean: 0 max: 0
Time = 0.01

PIMPLE: iteration 1
smoothSolver:  Solving for Ux, Initial residual = 1, Final residual = 0.00122568, No Iterations 1
smoothSolver:  Solving for Uy, Initial residual = 1, Final residual = 0.00122568, No Iterations 1
smoothSolver:  Solving for Uz, Initial residual = 0, Final residual = 0, No Iterations 0
GAMG:  Solving for p, Initial residual = 1, Final residual = 0.00385409, No Iterations 2
GAMG:  Solving for p, Initial residual = 0.00287054, Final residual = 1.28067e-05, No Iterations 7
time step continuity errors : sum local = 2.61343e-05, global = -2.01131e-05, cumulative = -2.01131e-05
GAMG:  Solving for p, Initial residual = 0.0239185, Final residual = 0.000116766, No Iterations 4
GAMG:  Solving for p, Initial residual = 0.000115243, Final residual = 9.65418e-07, No Iterations 6
time step continuity errors : sum local = 1.89621e-06, global = 1.39128e-06, cumulative = -1.87218e-05
smoothSolver:  Solving for epsilon, Initial residual = 0.839708, Final residual = 0.000120797, No Iterations 1
smoothSolver:  Solving for k, Initial residual = 1, Final residual = 0.0207053, No Iterations 1
PIMPLE: iteration 2
smoothSolver:  Solving for Ux, Initial residual = 0.0147245, Final residual = 3.21659e-06, No Iterations 3
smoothSolver:  Solving for Uy, Initial residual = 0.0157415, Final residual = 6.21109e-06, No Iterations 3
smoothSolver:  Solving for Uz, Initial residual = 0.212865, Final residual = 5.61887e-06, No Iterations 3
GAMG:  Solving for p, Initial residual = 0.00638211, Final residual = 3.29539e-05, No Iterations 5
GAMG:  Solving for p, Initial residual = 3.29092e-05, Final residual = 4.52628e-07, No Iterations 6
time step continuity errors : sum local = 4.87986e-07, global = 2.89726e-07, cumulative = -1.84321e-05
GAMG:  Solving for p, Initial residual = 0.00189949, Final residual = 1.41384e-05, No Iterations 5
GAMG:  Solving for p, Initial residual = 1.41411e-05, Final residual = 5.34081e-07, No Iterations 5
time step continuity errors : sum local = 5.75651e-07, global = -3.20083e-07, cumulative = -1.87521e-05
smoothSolver:  Solving for epsilon, Initial residual = 0.907735, Final residual = 2.17954e-06, No Iterations 3
smoothSolver:  Solving for k, Initial residual = 0.998535, Final residual = 8.70298e-07, No Iterations 3
ExecutionTime = 0.23 s  ClockTime = 0 s

scalarTransport execute: s
smoothSolver:  Solving for s, Initial residual = 1, Final residual = 0.0469907, No Iterations 1

Courant Number mean: 0.534834 max: 1.39998
Time = 0.02

PIMPLE: iteration 1
smoothSolver:  Solving for Ux, Initial residual = 0.272067, Final residual = 0.00873816, No Iterations 1
smoothSolver:  Solving for Uy, Initial residual = 0.424229, Final residual = 0.0249507, No Iterations 1
smoothSolver:  Solving for Uz, Initial residual = 0.279934, Final residual = 0.0080799, No Iterations 1
GAMG:  Solving for p, Initial residual = 0.0135706, Final residual = 5.9733e-05, No Iterations 4
GAMG:  Solving for p, Initial residual = 5.93598e-05, Final residual = 9.51278e-07, No Iterations 6
time step continuity errors : sum local = 1.09951e-06, global = -3.01543e-07, cumulative = -1.90537e-05
GAMG:  Solving for p, Initial residual = 0.00376405, Final residual = 2.70619e-05, No Iterations 5
GAMG:  Solving for p, Initial residual = 2.71306e-05, Final residual = 5.02874e-07, No Iterations 6
time step continuity errors : sum local = 5.7879e-07, global = -1.79804e-07, cumulative = -1.92335e-05
smoothSolver:  Solving for epsilon, Initial residual = 0.932018, Final residual = 4.6602e-05, No Iterations 1
smoothSolver:  Solving for k, Initial residual = 0.422569, Final residual = 0.0220261, No Iterations 1
PIMPLE: iteration 2
smoothSolver:  Solving for Ux, Initial residual = 0.0121585, Final residual = 9.62221e-06, No Iterations 5
smoothSolver:  Solving for Uy, Initial residual = 0.0117568, Final residual = 4.77748e-06, No Iterations 6
smoothSolver:  Solving for Uz, Initial residual = 0.688367, Final residual = 3.39548e-06, No Iterations 7
GAMG:  Solving for p, Initial residual = 0.00585228, Final residual = 4.04444e-05, No Iterations 6
GAMG:  Solving for p, Initial residual = 4.03207e-05, Final residual = 6.99453e-07, No Iterations 7
time step continuity errors : sum local = 6.34849e-07, global = -1.51825e-07, cumulative = -1.93853e-05
GAMG:  Solving for p, Initial residual = 0.00291365, Final residual = 1.77667e-05, No Iterations 6
GAMG:  Solving for p, Initial residual = 1.77709e-05, Final residual = 9.73532e-07, No Iterations 5
time step continuity errors : sum local = 8.83514e-07, global = 2.10201e-07, cumulative = -1.91751e-05
smoothSolver:  Solving for epsilon, Initial residual = 0.883311, Final residual = 5.06563e-06, No Iterations 4
smoothSolver:  Solving for k, Initial residual = 0.217747, Final residual = 7.41908e-06, No Iterations 3
ExecutionTime = 0.33 s  ClockTime = 0 s

scalarTransport execute: s
smoothSolver:  Solving for s, Initial residual = 0.932523, Final residual = 0.0170569, No Iterations 2

Courant Number mean: 1.05682 max: 2.74824
Time = 0.03

PIMPLE: iteration 1
smoothSolver:  Solving for Ux, Initial residual = 0.154767, Final residual = 0.00264871, No Iterations 2
smoothSolver:  Solving for Uy, Initial residual = 0.242265, Final residual = 0.00601141, No Iterations 2
smoothSolver:  Solving for Uz, Initial residual = 0.449336, Final residual = 0.0407039, No Iterations 1
GAMG:  Solving for p, Initial residual = 0.0200757, Final residual = 0.000160105, No Iterations 6
GAMG:  Solving for p, Initial residual = 0.000160351, Final residual = 6.66043e-07, No Iterations 8
time step continuity errors : sum local = 6.63286e-07, global = -2.45443e-07, cumulative = -1.94206e-05
GAMG:  Solving for p, Initial residual = 0.00717347, Final residual = 3.93949e-05, No Iterations 6
GAMG:  Solving for p, Initial residual = 3.93176e-05, Final residual = 5.17107e-07, No Iterations 6
time step continuity errors : sum local = 5.14636e-07, global = 1.93606e-07, cumulative = -1.9227e-05
smoothSolver:  Solving for epsilon, Initial residual = 0.988914, Final residual = 3.06575e-06, No Iterations 1
smoothSolver:  Solving for k, Initial residual = 0.249563, Final residual = 0.0232006, No Iterations 1
PIMPLE: iteration 2
smoothSolver:  Solving for Ux, Initial residual = 0.0134134, Final residual = 3.17794e-06, No Iterations 6
smoothSolver:  Solving for Uy, Initial residual = 0.0327557, Final residual = 7.7468e-06, No Iterations 6
smoothSolver:  Solving for Uz, Initial residual = 0.312025, Final residual = 7.15553e-06, No Iterations 8
GAMG:  Solving for p, Initial residual = 0.0153106, Final residual = 0.000147899, No Iterations 4
GAMG:  Solving for p, Initial residual = 0.000145418, Final residual = 1.44853e-06, No Iterations 7
time step continuity errors : sum local = 1.20875e-06, global = -2.96599e-07, cumulative = -1.95236e-05
GAMG:  Solving for p, Initial residual = 0.00810905, Final residual = 7.61817e-05, No Iterations 5
GAMG:  Solving for p, Initial residual = 7.6657e-05, Final residual = 4.63331e-07, No Iterations 7
time step continuity errors : sum local = 3.8473e-07, global = -2.13205e-07, cumulative = -1.97368e-05
smoothSolver:  Solving for epsilon, Initial residual = 0.758952, Final residual = 2.49473e-06, No Iterations 7
smoothSolver:  Solving for k, Initial residual = 0.0476059, Final residual = 1.89392e-06, No Iterations 3
ExecutionTime = 0.43 s  ClockTime = 0 s

scalarTransport execute: s
smoothSolver:  Solving for s, Initial residual = 0.81476, Final residual = 0.0234551, No Iterations 2

Courant Number mean: 1.55266 max: 3.99887
Time = 0.04

PIMPLE: iteration 1
smoothSolver:  Solving for Ux, Initial residual = 0.101069, Final residual = 0.00313624, No Iterations 2
smoothSolver:  Solving for Uy, Initial residual = 0.147385, Final residual = 0.0056354, No Iterations 2
smoothSolver:  Solving for Uz, Initial residual = 0.329064, Final residual = 0.00759956, No Iterations 2
GAMG:  Solving for p, Initial residual = 0.0305826, Final residual = 0.000303113, No Iterations 6
GAMG:  Solving for p, Initial residual = 0.000306358, Final residual = 1.56536e-06, No Iterations 8
time step continuity errors : sum local = 1.33419e-06, global = -4.86225e-07, cumulative = -2.0223e-05
GAMG:  Solving for p, Initial residual = 0.0137802, Final residual = 5.99998e-05, No Iterations 6
GAMG:  Solving for p, Initial residual = 5.93911e-05, Final residual = 7.75949e-07, No Iterations 6
time step continuity errors : sum local = 6.65182e-07, global = 2.83738e-07, cumulative = -1.99392e-05
smoothSolver:  Solving for epsilon, Initial residual = 0.998839, Final residual = 7.7476e-08, No Iterations 1
smoothSolver:  Solving for k, Initial residual = 0.165334, Final residual = 0.00314209, No Iterations 2
PIMPLE: iteration 2
smoothSolver:  Solving for Ux, Initial residual = 0.0182188, Final residual = 7.08807e-06, No Iterations 6
smoothSolver:  Solving for Uy, Initial residual = 0.0443476, Final residual = 3.61868e-06, No Iterations 7
smoothSolver:  Solving for Uz, Initial residual = 0.280697, Final residual = 7.93939e-06, No Iterations 7
GAMG:  Solving for p, Initial residual = 0.0290415, Final residual = 0.000179572, No Iterations 4
GAMG:  Solving for p, Initial residual = 0.000174624, Final residual = 7.89077e-07, No Iterations 8
time step continuity errors : sum local = 5.84991e-07, global = 2.9666e-07, cumulative = -1.96426e-05
GAMG:  Solving for p, Initial residual = 0.0150961, Final residual = 9.3828e-05, No Iterations 5
GAMG:  Solving for p, Initial residual = 9.50401e-05, Final residual = 7.46605e-07, No Iterations 7
time step continuity errors : sum local = 5.4662e-07, global = -3.23215e-07, cumulative = -1.99658e-05
smoothSolver:  Solving for epsilon, Initial residual = 0.695705, Final residual = 7.10218e-06, No Iterations 8
smoothSolver:  Solving for k, Initial residual = 0.00739588, Final residual = 6.11773e-06, No Iterations 2
ExecutionTime = 0.54 s  ClockTime = 1 s

scalarTransport execute: s
smoothSolver:  Solving for s, Initial residual = 0.651787, Final residual = 0.0264645, No Iterations 2

Courant Number mean: 2.00794 max: 5.23681
Time = 0.05

PIMPLE: iteration 1
smoothSolver:  Solving for Ux, Initial residual = 0.0720525, Final residual = 0.00263716, No Iterations 2
smoothSolver:  Solving for Uy, Initial residual = 0.0964463, Final residual = 0.00478945, No Iterations 2
smoothSolver:  Solving for Uz, Initial residual = 0.285903, Final residual = 0.00783295, No Iterations 2
GAMG:  Solving for p, Initial residual = 0.0438142, Final residual = 0.000302915, No Iterations 6
GAMG:  Solving for p, Initial residual = 0.000308312, Final residual = 1.25999e-06, No Iterations 8
time step continuity errors : sum local = 9.31297e-07, global = -3.71839e-07, cumulative = -2.03376e-05
GAMG:  Solving for p, Initial residual = 0.019212, Final residual = 0.000149228, No Iterations 5
GAMG:  Solving for p, Initial residual = 0.000146817, Final residual = 7.61378e-07, No Iterations 8
time step continuity errors : sum local = 5.68416e-07, global = -1.47526e-07, cumulative = -2.04852e-05
smoothSolver:  Solving for epsilon, Initial residual = 0.996227, Final residual = 2.91762e-10, No Iterations 1
smoothSolver:  Solving for k, Initial residual = 0.108303, Final residual = 0.00331574, No Iterations 2
bounding k, min: -4.49582e-05 max: 0.2 average: 0.027553
PIMPLE: iteration 2
smoothSolver:  Solving for Ux, Initial residual = 0.0227452, Final residual = 5.84148e-06, No Iterations 7
smoothSolver:  Solving for Uy, Initial residual = 0.0440325, Final residual = 5.40036e-06, No Iterations 7
smoothSolver:  Solving for Uz, Initial residual = 0.270202, Final residual = 7.42677e-06, No Iterations 14
GAMG:  Solving for p, Initial residual = 0.0397103, Final residual = 0.000306466, No Iterations 4
GAMG:  Solving for p, Initial residual = 0.000296873, Final residual = 1.65694e-06, No Iterations 8
time step continuity errors : sum local = 1.16601e-06, global = 7.3899e-07, cumulative = -1.97462e-05
GAMG:  Solving for p, Initial residual = 0.0180951, Final residual = 0.000168233, No Iterations 4
GAMG:  Solving for p, Initial residual = 0.000171267, Final residual = 8.64313e-07, No Iterations 9
time step continuity errors : sum local = 5.98308e-07, global = 1.29816e-07, cumulative = -1.96164e-05
smoothSolver:  Solving for epsilon, Initial residual = 0.655823, Final residual = 9.62562e-06, No Iterations 35
bounding epsilon, min: -0.47511 max: 200 average: 5.70083
smoothSolver:  Solving for k, Initial residual = 0.00453762, Final residual = 6.33609e-06, No Iterations 2
ExecutionTime = 0.65 s  ClockTime = 1 s

scalarTransport execute: s
smoothSolver:  Solving for s, Initial residual = 0.490397, Final residual = 0.0223298, No Iterations 2

Courant Number mean: 2.41831 max: 6.32694
Time = 0.06

PIMPLE: iteration 1
smoothSolver:  Solving for Ux, Initial residual = 0.0552845, Final residual = 0.00238965, No Iterations 2
smoothSolver:  Solving for Uy, Initial residual = 0.0677214, Final residual = 0.00384497, No Iterations 2
smoothSolver:  Solving for Uz, Initial residual = 0.269104, Final residual = 0.00735472, No Iterations 2
GAMG:  Solving for p, Initial residual = 0.0510997, Final residual = 0.000324149, No Iterations 6
GAMG:  Solving for p, Initial residual = 0.000328375, Final residual = 1.76638e-06, No Iterations 8
time step continuity errors : sum local = 1.20611e-06, global = -4.0847e-07, cumulative = -2.00248e-05
GAMG:  Solving for p, Initial residual = 0.0221502, Final residual = 0.00021465, No Iterations 4
GAMG:  Solving for p, Initial residual = 0.000212323, Final residual = 7.01334e-07, No Iterations 9
time step continuity errors : sum local = 4.80951e-07, global = -1.23942e-07, cumulative = -2.01488e-05
smoothSolver:  Solving for epsilon, Initial residual = 0.996725, Final residual = 1.64992e-10, No Iterations 1
smoothSolver:  Solving for k, Initial residual = 0.0738787, Final residual = 0.00291909, No Iterations 2
bounding k, min: -1.3491e-05 max: 0.2 average: 0.0249787
PIMPLE: iteration 2
smoothSolver:  Solving for Ux, Initial residual = 0.0225756, Final residual = 4.84372e-06, No Iterations 7
smoothSolver:  Solving for Uy, Initial residual = 0.036229, Final residual = 6.70018e-06, No Iterations 7
smoothSolver:  Solving for Uz, Initial residual = 0.248634, Final residual = 3.40586e-06, No Iterations 8
GAMG:  Solving for p, Initial residual = 0.0461616, Final residual = 0.000367642, No Iterations 4
GAMG:  Solving for p, Initial residual = 0.000359253, Final residual = 2.11695e-06, No Iterations 8
time step continuity errors : sum local = 1.37352e-06, global = 7.26082e-07, cumulative = -1.94227e-05
GAMG:  Solving for p, Initial residual = 0.0204684, Final residual = 0.000179323, No Iterations 4
GAMG:  Solving for p, Initial residual = 0.000182111, Final residual = 7.73756e-07, No Iterations 9
time step continuity errors : sum local = 4.94751e-07, global = 9.81661e-08, cumulative = -1.93245e-05
smoothSolver:  Solving for epsilon, Initial residual = 0.61119, Final residual = 3.57842e-06, No Iterations 9
bounding epsilon, min: -0.18833 max: 200 average: 4.56512
smoothSolver:  Solving for k, Initial residual = 0.00276256, Final residual = 5.24216e-06, No Iterations 2
ExecutionTime = 0.75 s  ClockTime = 1 s

scalarTransport execute: s
smoothSolver:  Solving for s, Initial residual = 0.381125, Final residual = 0.0193926, No Iterations 2

Courant Number mean: 2.78255 max: 7.35652
Time = 0.07

PIMPLE: iteration 1
smoothSolver:  Solving for Ux, Initial residual = 0.0443507, Final residual = 0.0022862, No Iterations 2
smoothSolver:  Solving for Uy, Initial residual = 0.0498574, Final residual = 0.00315421, No Iterations 2
smoothSolver:  Solving for Uz, Initial residual = 0.244889, Final residual = 0.00720032, No Iterations 2
GAMG:  Solving for p, Initial residual = 0.0528851, Final residual = 0.000320679, No Iterations 6
GAMG:  Solving for p, Initial residual = 0.000322976, Final residual = 2.69213e-06, No Iterations 8
time step continuity errors : sum local = 1.76769e-06, global = -4.86162e-07, cumulative = -1.98107e-05
GAMG:  Solving for p, Initial residual = 0.0226302, Final residual = 0.000218319, No Iterations 4
GAMG:  Solving for p, Initial residual = 0.000216813, Final residual = 8.68928e-07, No Iterations 9
time step continuity errors : sum local = 5.71176e-07, global = -1.4902e-07, cumulative = -1.99597e-05
smoothSolver:  Solving for epsilon, Initial residual = 0.991026, Final residual = 3.43033e-11, No Iterations 1
smoothSolver:  Solving for k, Initial residual = 0.0515344, Final residual = 0.0024843, No Iterations 2
bounding k, min: -9.94252e-06 max: 0.2 average: 0.0235731
PIMPLE: iteration 2
smoothSolver:  Solving for Ux, Initial residual = 0.0239208, Final residual = 9.38659e-06, No Iterations 15
smoothSolver:  Solving for Uy, Initial residual = 0.0312538, Final residual = 9.98623e-06, No Iterations 32
smoothSolver:  Solving for Uz, Initial residual = 0.270423, Final residual = 9.99903e-06, No Iterations 184
GAMG:  Solving for p, Initial residual = 0.0496605, Final residual = 0.000406781, No Iterations 4
GAMG:  Solving for p, Initial residual = 0.000398893, Final residual = 2.8194e-06, No Iterations 8
time step continuity errors : sum local = 1.74542e-06, global = 8.31978e-07, cumulative = -1.91277e-05
GAMG:  Solving for p, Initial residual = 0.0213093, Final residual = 0.000187141, No Iterations 4
GAMG:  Solving for p, Initial residual = 0.000189619, Final residual = 7.21709e-07, No Iterations 9
time step continuity errors : sum local = 4.41338e-07, global = 8.69979e-08, cumulative = -1.90407e-05
smoothSolver:  Solving for epsilon, Initial residual = 0.540009, Final residual = 9.98621e-06, No Iterations 444
bounding epsilon, min: -0.13826 max: 200 average: 3.75179
smoothSolver:  Solving for k, Initial residual = 0.00306037, Final residual = 8.87475e-06, No Iterations 2
ExecutionTime = 0.98 s  ClockTime = 1 s

scalarTransport execute: s
smoothSolver:  Solving for s, Initial residual = 0.288712, Final residual = 0.016869, No Iterations 2

Courant Number mean: 3.10419 max: 8.25899
Time = 0.08

PIMPLE: iteration 1
smoothSolver:  Solving for Ux, Initial residual = 0.0360671, Final residual = 0.00213248, No Iterations 2
smoothSolver:  Solving for Uy, Initial residual = 0.0372588, Final residual = 0.00278123, No Iterations 2
smoothSolver:  Solving for Uz, Initial residual = 0.233909, Final residual = 0.00755578, No Iterations 2
GAMG:  Solving for p, Initial residual = 0.0543724, Final residual = 0.000297605, No Iterations 6
GAMG:  Solving for p, Initial residual = 0.000300746, Final residual = 2.57327e-06, No Iterations 8
time step continuity errors : sum local = 1.64151e-06, global = -4.82033e-07, cumulative = -1.95228e-05
GAMG:  Solving for p, Initial residual = 0.0224024, Final residual = 0.000211387, No Iterations 4
GAMG:  Solving for p, Initial residual = 0.000210104, Final residual = 9.01956e-07, No Iterations 9
time step continuity errors : sum local = 5.75841e-07, global = -1.4576e-07, cumulative = -1.96685e-05
smoothSolver:  Solving for epsilon, Initial residual = 0.998001, Final residual = 2.03558e-10, No Iterations 1
smoothSolver:  Solving for k, Initial residual = 0.042914, Final residual = 0.00238835, No Iterations 2
bounding k, min: -3.13391e-06 max: 0.2 average: 0.022904
PIMPLE: iteration 2
smoothSolver:  Solving for Ux, Initial residual = 0.0204678, Final residual = 6.36939e-06, No Iterations 7
smoothSolver:  Solving for Uy, Initial residual = 0.0262831, Final residual = 9.74407e-06, No Iterations 7
smoothSolver:  Solving for Uz, Initial residual = 0.205221, Final residual = 4.32001e-06, No Iterations 8
GAMG:  Solving for p, Initial residual = 0.0505714, Final residual = 0.000403945, No Iterations 4
GAMG:  Solving for p, Initial residual = 0.000397627, Final residual = 2.30196e-06, No Iterations 8
time step continuity errors : sum local = 1.35833e-06, global = 7.87936e-07, cumulative = -1.88806e-05
GAMG:  Solving for p, Initial residual = 0.0211526, Final residual = 0.000172662, No Iterations 4
GAMG:  Solving for p, Initial residual = 0.000174694, Final residual = 7.46527e-07, No Iterations 9
time step continuity errors : sum local = 4.36089e-07, global = 8.54385e-08, cumulative = -1.87951e-05
smoothSolver:  Solving for epsilon, Initial residual = 0.455358, Final residual = 7.30475e-06, No Iterations 8
bounding epsilon, min: -0.10585 max: 200 average: 3.22244
smoothSolver:  Solving for k, Initial residual = 0.00239151, Final residual = 9.13618e-06, No Iterations 2
ExecutionTime = 1.1 s  ClockTime = 1 s

scalarTransport execute: s
smoothSolver:  Solving for s, Initial residual = 0.227846, Final residual = 0.0143665, No Iterations 2

Courant Number mean: 3.38845 max: 9.09025
Time = 0.09

PIMPLE: iteration 1
smoothSolver:  Solving for Ux, Initial residual = 0.0308894, Final residual = 0.00198491, No Iterations 2
smoothSolver:  Solving for Uy, Initial residual = 0.0295187, Final residual = 0.00226242, No Iterations 2
smoothSolver:  Solving for Uz, Initial residual = 0.203172, Final residual = 0.00679594, No Iterations 2
GAMG:  Solving for p, Initial residual = 0.0546701, Final residual = 0.000453631, No Iterations 5
GAMG:  Solving for p, Initial residual = 0.000456114, Final residual = 4.30453e-06, No Iterations 8
time step continuity errors : sum local = 2.6117e-06, global = 6.71905e-07, cumulative = -1.81232e-05
GAMG:  Solving for p, Initial residual = 0.0218115, Final residual = 0.000183511, No Iterations 4
GAMG:  Solving for p, Initial residual = 0.000182934, Final residual = 6.69062e-07, No Iterations 9
time step continuity errors : sum local = 4.05624e-07, global = -9.96662e-08, cumulative = -1.82229e-05
smoothSolver:  Solving for epsilon, Initial residual = 0.99957, Final residual = 4.45622e-11, No Iterations 1
smoothSolver:  Solving for k, Initial residual = 0.0386857, Final residual = 0.00229914, No Iterations 2
bounding k, min: -0.000135667 max: 0.2 average: 0.0227763
PIMPLE: iteration 2
smoothSolver:  Solving for Ux, Initial residual = 0.0223814, Final residual = 8.88796e-06, No Iterations 14
smoothSolver:  Solving for Uy, Initial residual = 0.0255496, Final residual = 9.05456e-06, No Iterations 14
smoothSolver:  Solving for Uz, Initial residual = 0.290786, Final residual = 9.98442e-06, No Iterations 656
GAMG:  Solving for p, Initial residual = 0.0503322, Final residual = 0.000298403, No Iterations 4
GAMG:  Solving for p, Initial residual = 0.000295459, Final residual = 1.4258e-06, No Iterations 8
time step continuity errors : sum local = 8.3161e-07, global = 4.96017e-07, cumulative = -1.77269e-05
GAMG:  Solving for p, Initial residual = 0.0201521, Final residual = 0.000131955, No Iterations 4
GAMG:  Solving for p, Initial residual = 0.000133221, Final residual = 7.25947e-07, No Iterations 8
time step continuity errors : sum local = 4.1957e-07, global = -2.60158e-07, cumulative = -1.7987e-05
smoothSolver:  Solving for epsilon, Initial residual = 0.385197, Final residual = 1.6776e-05, No Iterations 1000
bounding epsilon, min: -0.0209212 max: 200 average: 2.88149
smoothSolver:  Solving for k, Initial residual = 0.00278733, Final residual = 7.438e-06, No Iterations 3
ExecutionTime = 1.51 s  ClockTime = 2 s

scalarTransport execute: s
smoothSolver:  Solving for s, Initial residual = 0.18294, Final residual = 0.0130253, No Iterations 2

Courant Number mean: 3.64252 max: 9.82822
Time = 0.1

PIMPLE: iteration 1
smoothSolver:  Solving for Ux, Initial residual = 0.0274141, Final residual = 0.00185914, No Iterations 2
smoothSolver:  Solving for Uy, Initial residual = 0.0240604, Final residual = 0.00189629, No Iterations 2
smoothSolver:  Solving for Uz, Initial residual = 0.210577, Final residual = 0.00783527, No Iterations 2
GAMG:  Solving for p, Initial residual = 0.0632801, Final residual = 0.000436384, No Iterations 5
GAMG:  Solving for p, Initial residual = 0.00044091, Final residual = 2.66176e-06, No Iterations 9
time step continuity errors : sum local = 1.5758e-06, global = -3.25431e-07, cumulative = -1.83125e-05
GAMG:  Solving for p, Initial residual = 0.022746, Final residual = 0.000172319, No Iterations 4
GAMG:  Solving for p, Initial residual = 0.000172291, Final residual = 8.95557e-07, No Iterations 9
time step continuity errors : sum local = 5.28338e-07, global = -1.40088e-07, cumulative = -1.84526e-05
smoothSolver:  Solving for epsilon, Initial residual = 0.996048, Final residual = 4.99266e-10, No Iterations 1
smoothSolver:  Solving for k, Initial residual = 0.0368333, Final residual = 0.0022274, No Iterations 2
bounding k, min: -0.000156987 max: 0.2 average: 0.023001
PIMPLE: iteration 2
smoothSolver:  Solving for Ux, Initial residual = 0.0178132, Final residual = 6.38937e-06, No Iterations 7
smoothSolver:  Solving for Uy, Initial residual = 0.0186474, Final residual = 3.74471e-06, No Iterations 8
smoothSolver:  Solving for Uz, Initial residual = 0.182131, Final residual = 8.57337e-06, No Iterations 8
GAMG:  Solving for p, Initial residual = 0.0503505, Final residual = 0.000383708, No Iterations 4
GAMG:  Solving for p, Initial residual = 0.000384098, Final residual = 2.40714e-06, No Iterations 9
time step continuity errors : sum local = 1.36795e-06, global = -3.09031e-07, cumulative = -1.87616e-05
GAMG:  Solving for p, Initial residual = 0.020042, Final residual = 0.000140175, No Iterations 4
GAMG:  Solving for p, Initial residual = 0.000140786, Final residual = 9.36131e-07, No Iterations 8
time step continuity errors : sum local = 5.28887e-07, global = -2.35687e-07, cumulative = -1.89973e-05
smoothSolver:  Solving for epsilon, Initial residual = 0.329806, Final residual = 3.24352e-06, No Iterations 8
smoothSolver:  Solving for k, Initial residual = 0.00288689, Final residual = 6.07786e-06, No Iterations 3
ExecutionTime = 1.67 s  ClockTime = 2 s

scalarTransport execute: s
smoothSolver:  Solving for s, Initial residual = 0.1502, Final residual = 0.0113365, No Iterations 2

scalarTransport write: sTransport
	s

Courant Number mean: 3.86633 max: 10.5036
Time = 0.11

PIMPLE: iteration 1
smoothSolver:  Solving for Ux, Initial residual = 0.0243943, Final residual = 0.0017132, No Iterations 2
smoothSolver:  Solving for Uy, Initial residual = 0.0198925, Final residual = 0.00164177, No Iterations 2
smoothSolver:  Solving for Uz, Initial residual = 0.168999, Final residual = 0.00673341, No Iterations 2
GAMG:  Solving for p, Initial residual = 0.0530768, Final residual = 0.000458678, No Iterations 5
GAMG:  Solving for p, Initial residual = 0.000459016, Final residual = 3.45604e-06, No Iterations 9
time step continuity errors : sum local = 1.9809e-06, global = -3.03314e-07, cumulative = -1.93006e-05
GAMG:  Solving for p, Initial residual = 0.0198145, Final residual = 0.000191416, No Iterations 4
GAMG:  Solving for p, Initial residual = 0.000191552, Final residual = 8.21407e-07, No Iterations 10
time step continuity errors : sum local = 4.7e-07, global = 7.79288e-08, cumulative = -1.92227e-05
smoothSolver:  Solving for epsilon, Initial residual = 0.997275, Final residual = 4.11954e-10, No Iterations 1
smoothSolver:  Solving for k, Initial residual = 0.0353006, Final residual = 0.00217674, No Iterations 2
bounding k, min: -0.000137886 max: 0.2 average: 0.0234941
PIMPLE: iteration 2
smoothSolver:  Solving for Ux, Initial residual = 0.0164082, Final residual = 6.90624e-06, No Iterations 7
smoothSolver:  Solving for Uy, Initial residual = 0.0164208, Final residual = 5.90078e-06, No Iterations 8
smoothSolver:  Solving for Uz, Initial residual = 0.160472, Final residual = 8.63475e-06, No Iterations 10
GAMG:  Solving for p, Initial residual = 0.0479755, Final residual = 0.000340385, No Iterations 4
GAMG:  Solving for p, Initial residual = 0.000341132, Final residual = 2.4337e-06, No Iterations 9
time step continuity errors : sum local = 1.3709e-06, global = -3.25071e-07, cumulative = -1.95477e-05
GAMG:  Solving for p, Initial residual = 0.018923, Final residual = 0.000133744, No Iterations 4
GAMG:  Solving for p, Initial residual = 0.000134159, Final residual = 6.73351e-07, No Iterations 9
time step continuity errors : sum local = 3.77518e-07, global = 7.12615e-08, cumulative = -1.94765e-05
smoothSolver:  Solving for epsilon, Initial residual = 0.280204, Final residual = 9.76956e-06, No Iterations 89
smoothSolver:  Solving for k, Initial residual = 0.00295021, Final residual = 7.99872e-06, No Iterations 3
ExecutionTime = 1.8 s  ClockTime = 2 s

scalarTransport execute: s
smoothSolver:  Solving for s, Initial residual = 0.127917, Final residual = 0.0100657, No Iterations 2

Courant Number mean: 4.06017 max: 11.1143
Time = 0.12

PIMPLE: iteration 1
smoothSolver:  Solving for Ux, Initial residual = 0.0213605, Final residual = 0.00152749, No Iterations 2
smoothSolver:  Solving for Uy, Initial residual = 0.0167065, Final residual = 0.00143002, No Iterations 2
smoothSolver:  Solving for Uz, Initial residual = 0.147623, Final residual = 0.0063113, No Iterations 2
GAMG:  Solving for p, Initial residual = 0.0514921, Final residual = 0.00038205, No Iterations 5
GAMG:  Solving for p, Initial residual = 0.000383778, Final residual = 2.89838e-06, No Iterations 9
time step continuity errors : sum local = 1.60159e-06, global = -2.61463e-07, cumulative = -1.97379e-05
GAMG:  Solving for p, Initial residual = 0.0189094, Final residual = 0.000161921, No Iterations 4
GAMG:  Solving for p, Initial residual = 0.000161807, Final residual = 6.78493e-07, No Iterations 10
time step continuity errors : sum local = 3.75115e-07, global = 6.33179e-08, cumulative = -1.96746e-05
smoothSolver:  Solving for epsilon, Initial residual = 0.997241, Final residual = 8.02229e-10, No Iterations 1
smoothSolver:  Solving for k, Initial residual = 0.0335247, Final residual = 0.00212018, No Iterations 2
bounding k, min: -1.8726e-07 max: 0.2 average: 0.0241509
PIMPLE: iteration 2
smoothSolver:  Solving for Ux, Initial residual = 0.0157959, Final residual = 5.88147e-06, No Iterations 7
smoothSolver:  Solving for Uy, Initial residual = 0.0145108, Final residual = 9.50895e-06, No Iterations 7
smoothSolver:  Solving for Uz, Initial residual = 0.142241, Final residual = 3.85907e-06, No Iterations 9
GAMG:  Solving for p, Initial residual = 0.0474747, Final residual = 0.000426925, No Iterations 3
GAMG:  Solving for p, Initial residual = 0.000427162, Final residual = 3.94564e-06, No Iterations 8
time step continuity errors : sum local = 2.22889e-06, global = -4.42231e-07, cumulative = -2.01169e-05
GAMG:  Solving for p, Initial residual = 0.0168038, Final residual = 8.1404e-05, No Iterations 4
GAMG:  Solving for p, Initial residual = 8.17919e-05, Final residual = 3.66193e-07, No Iterations 8
time step continuity errors : sum local = 2.05289e-07, global = -1.31121e-07, cumulative = -2.0248e-05
smoothSolver:  Solving for epsilon, Initial residual = 0.244309, Final residual = 4.71147e-06, No Iterations 7
smoothSolver:  Solving for k, Initial residual = 0.00266963, Final residual = 8.58775e-06, No Iterations 3
bounding k, min: -7.32784e-05 max: 0.2 average: 0.0239695
ExecutionTime = 1.9 s  ClockTime = 2 s

scalarTransport execute: s
smoothSolver:  Solving for s, Initial residual = 0.109048, Final residual = 0.00905703, No Iterations 2

Courant Number mean: 4.23187 max: 11.6544
Time = 0.13

PIMPLE: iteration 1
smoothSolver:  Solving for Ux, Initial residual = 0.0186764, Final residual = 0.00148057, No Iterations 2
smoothSolver:  Solving for Uy, Initial residual = 0.0146238, Final residual = 0.00121338, No Iterations 2
smoothSolver:  Solving for Uz, Initial residual = 0.138844, Final residual = 0.00627212, No Iterations 2
GAMG:  Solving for p, Initial residual = 0.0501313, Final residual = 0.000430244, No Iterations 4
GAMG:  Solving for p, Initial residual = 0.000429027, Final residual = 3.40972e-06, No Iterations 9
time step continuity errors : sum local = 1.87903e-06, global = 8.32469e-07, cumulative = -1.94155e-05
GAMG:  Solving for p, Initial residual = 0.0176901, Final residual = 8.717e-05, No Iterations 4
GAMG:  Solving for p, Initial residual = 8.72228e-05, Final residual = 6.40179e-07, No Iterations 9
time step continuity errors : sum local = 3.52734e-07, global = -1.8163e-07, cumulative = -1.95971e-05
smoothSolver:  Solving for epsilon, Initial residual = 0.999479, Final residual = 1.02198e-10, No Iterations 1
smoothSolver:  Solving for k, Initial residual = 0.0316882, Final residual = 0.0020959, No Iterations 2
bounding k, min: -0.000130197 max: 0.2 average: 0.0249202
PIMPLE: iteration 2
smoothSolver:  Solving for Ux, Initial residual = 0.0164899, Final residual = 6.58037e-06, No Iterations 7
smoothSolver:  Solving for Uy, Initial residual = 0.0136392, Final residual = 9.93592e-06, No Iterations 54
smoothSolver:  Solving for Uz, Initial residual = 0.151572, Final residual = 9.97544e-06, No Iterations 244
GAMG:  Solving for p, Initial residual = 0.0488621, Final residual = 0.00031766, No Iterations 3
GAMG:  Solving for p, Initial residual = 0.000321366, Final residual = 2.84898e-06, No Iterations 8
time step continuity errors : sum local = 1.49734e-06, global = -9.17508e-07, cumulative = -2.05146e-05
GAMG:  Solving for p, Initial residual = 0.016566, Final residual = 8.48209e-05, No Iterations 4
GAMG:  Solving for p, Initial residual = 8.46523e-05, Final residual = 7.00897e-07, No Iterations 7
time step continuity errors : sum local = 3.66003e-07, global = 2.41129e-07, cumulative = -2.02735e-05
smoothSolver:  Solving for epsilon, Initial residual = 0.216497, Final residual = 9.96395e-06, No Iterations 685
smoothSolver:  Solving for k, Initial residual = 0.000917353, Final residual = 4.82263e-06, No Iterations 3
ExecutionTime = 2.16 s  ClockTime = 2 s

scalarTransport execute: s
smoothSolver:  Solving for s, Initial residual = 0.0950491, Final residual = 0.00821368, No Iterations 2

Courant Number mean: 4.38107 max: 12.1273
Time = 0.14

PIMPLE: iteration 1
smoothSolver:  Solving for Ux, Initial residual = 0.0171549, Final residual = 0.00132317, No Iterations 2
smoothSolver:  Solving for Uy, Initial residual = 0.0138096, Final residual = 0.00111807, No Iterations 2
smoothSolver:  Solving for Uz, Initial residual = 0.132675, Final residual = 0.006766, No Iterations 2
GAMG:  Solving for p, Initial residual = 0.0581105, Final residual = 0.000390466, No Iterations 4
GAMG:  Solving for p, Initial residual = 0.000388568, Final residual = 3.21288e-06, No Iterations 9
time step continuity errors : sum local = 1.87637e-06, global = 1.11471e-06, cumulative = -1.91588e-05
GAMG:  Solving for p, Initial residual = 0.0181843, Final residual = 9.97363e-05, No Iterations 4
GAMG:  Solving for p, Initial residual = 0.000100349, Final residual = 8.56084e-07, No Iterations 9
time step continuity errors : sum local = 4.973e-07, global = -3.02126e-07, cumulative = -1.94609e-05
smoothSolver:  Solving for epsilon, Initial residual = 0.999582, Final residual = 3.17767e-11, No Iterations 1
smoothSolver:  Solving for k, Initial residual = 0.0314619, Final residual = 0.00216422, No Iterations 2
bounding k, min: -5.22615e-05 max: 0.2 average: 0.0257998
PIMPLE: iteration 2
smoothSolver:  Solving for Ux, Initial residual = 0.0183093, Final residual = 6.13023e-06, No Iterations 7
smoothSolver:  Solving for Uy, Initial residual = 0.0241546, Final residual = 9.49172e-06, No Iterations 8
smoothSolver:  Solving for Uz, Initial residual = 0.353497, Final residual = 1.31581e-05, No Iterations 1000
GAMG:  Solving for p, Initial residual = 0.0463812, Final residual = 0.000391654, No Iterations 3
GAMG:  Solving for p, Initial residual = 0.000396985, Final residual = 3.30819e-06, No Iterations 9
time step continuity errors : sum local = 1.77827e-06, global = 2.61559e-07, cumulative = -1.91994e-05
GAMG:  Solving for p, Initial residual = 0.0158412, Final residual = 9.11218e-05, No Iterations 4
GAMG:  Solving for p, Initial residual = 9.08892e-05, Final residual = 7.60677e-07, No Iterations 8
time step continuity errors : sum local = 4.06883e-07, global = -7.17857e-08, cumulative = -1.92712e-05
smoothSolver:  Solving for epsilon, Initial residual = 0.1989, Final residual = 0.00487127, No Iterations 1000
smoothSolver:  Solving for k, Initial residual = 0.00639647, Final residual = 9.95236e-06, No Iterations 18
ExecutionTime = 2.6 s  ClockTime = 3 s

scalarTransport execute: s
smoothSolver:  Solving for s, Initial residual = 0.0833323, Final residual = 0.00754604, No Iterations 2

Courant Number mean: 4.51315 max: 12.5616
Time = 0.15

PIMPLE: iteration 1
smoothSolver:  Solving for Ux, Initial residual = 0.0159978, Final residual = 0.00122392, No Iterations 2
smoothSolver:  Solving for Uy, Initial residual = 0.0126129, Final residual = 0.00098409, No Iterations 2
smoothSolver:  Solving for Uz, Initial residual = 0.116332, Final residual = 0.00566977, No Iterations 2
GAMG:  Solving for p, Initial residual = 0.0534924, Final residual = 0.000407496, No Iterations 4
GAMG:  Solving for p, Initial residual = 0.000406255, Final residual = 3.16095e-06, No Iterations 9
time step continuity errors : sum local = 1.80767e-06, global = 1.04568e-06, cumulative = -1.82255e-05
GAMG:  Solving for p, Initial residual = 0.017642, Final residual = 0.000103896, No Iterations 4
GAMG:  Solving for p, Initial residual = 0.000104345, Final residual = 8.42324e-07, No Iterations 9
time step continuity errors : sum local = 4.79981e-07, global = -2.82811e-07, cumulative = -1.85083e-05
smoothSolver:  Solving for epsilon, Initial residual = 0.98073, Final residual = 2.40554e-09, No Iterations 1
smoothSolver:  Solving for k, Initial residual = 0.0312589, Final residual = 0.00213006, No Iterations 2
PIMPLE: iteration 2
smoothSolver:  Solving for Ux, Initial residual = 0.0130545, Final residual = 5.04324e-06, No Iterations 7
smoothSolver:  Solving for Uy, Initial residual = 0.010317, Final residual = 6.54132e-06, No Iterations 7
smoothSolver:  Solving for Uz, Initial residual = 0.108158, Final residual = 9.29398e-06, No Iterations 8
GAMG:  Solving for p, Initial residual = 0.0461222, Final residual = 0.00045287, No Iterations 3
GAMG:  Solving for p, Initial residual = 0.000459536, Final residual = 3.4492e-06, No Iterations 9
time step continuity errors : sum local = 1.83911e-06, global = 2.94018e-07, cumulative = -1.82143e-05
GAMG:  Solving for p, Initial residual = 0.0154444, Final residual = 0.000105684, No Iterations 4
GAMG:  Solving for p, Initial residual = 0.00010524, Final residual = 8.44376e-07, No Iterations 8
time step continuity errors : sum local = 4.47984e-07, global = -7.49339e-08, cumulative = -1.82892e-05
smoothSolver:  Solving for epsilon, Initial residual = 0.181228, Final residual = 8.32893e-06, No Iterations 6
smoothSolver:  Solving for k, Initial residual = 0.00386177, Final residual = 7.41466e-06, No Iterations 4
ExecutionTime = 2.7 s  ClockTime = 3 s

scalarTransport execute: s
smoothSolver:  Solving for s, Initial residual = 0.0746889, Final residual = 0.00698458, No Iterations 2

Courant Number mean: 4.63009 max: 12.9313
Time = 0.16

PIMPLE: iteration 1
smoothSolver:  Solving for Ux, Initial residual = 0.0145021, Final residual = 0.00117142, No Iterations 2
smoothSolver:  Solving for Uy, Initial residual = 0.0119999, Final residual = 0.000932324, No Iterations 2
smoothSolver:  Solving for Uz, Initial residual = 0.100405, Final residual = 0.00504576, No Iterations 2
GAMG:  Solving for p, Initial residual = 0.045671, Final residual = 0.000384187, No Iterations 4
GAMG:  Solving for p, Initial residual = 0.000379356, Final residual = 2.72435e-06, No Iterations 9
time step continuity errors : sum local = 1.53753e-06, global = 9.14362e-07, cumulative = -1.73748e-05
GAMG:  Solving for p, Initial residual = 0.0143402, Final residual = 9.17488e-05, No Iterations 4
GAMG:  Solving for p, Initial residual = 9.23076e-05, Final residual = 7.95524e-07, No Iterations 9
time step continuity errors : sum local = 4.47249e-07, global = -2.80456e-07, cumulative = -1.76553e-05
smoothSolver:  Solving for epsilon, Initial residual = 0.977379, Final residual = 1.13123e-09, No Iterations 1
smoothSolver:  Solving for k, Initial residual = 0.0306477, Final residual = 0.00221985, No Iterations 2
bounding k, min: -1.6126e-06 max: 0.2 average: 0.0277922
PIMPLE: iteration 2
smoothSolver:  Solving for Ux, Initial residual = 0.0127053, Final residual = 4.98333e-06, No Iterations 7
smoothSolver:  Solving for Uy, Initial residual = 0.00962184, Final residual = 5.49465e-06, No Iterations 7
smoothSolver:  Solving for Uz, Initial residual = 0.09284, Final residual = 7.66811e-06, No Iterations 8
GAMG:  Solving for p, Initial residual = 0.0429034, Final residual = 0.000428904, No Iterations 3
GAMG:  Solving for p, Initial residual = 0.000433937, Final residual = 3.15007e-06, No Iterations 9
time step continuity errors : sum local = 1.72589e-06, global = 2.4705e-07, cumulative = -1.74082e-05
GAMG:  Solving for p, Initial residual = 0.0146721, Final residual = 0.000109169, No Iterations 4
GAMG:  Solving for p, Initial residual = 0.000108593, Final residual = 4.14862e-07, No Iterations 9
time step continuity errors : sum local = 2.26204e-07, global = 1.45091e-07, cumulative = -1.72632e-05
smoothSolver:  Solving for epsilon, Initial residual = 0.169436, Final residual = 3.3762e-06, No Iterations 7
smoothSolver:  Solving for k, Initial residual = 0.00335954, Final residual = 6.72455e-06, No Iterations 4
ExecutionTime = 2.8 s  ClockTime = 3 s

scalarTransport execute: s
smoothSolver:  Solving for s, Initial residual = 0.0675858, Final residual = 0.0061889, No Iterations 2

Courant Number mean: 4.73695 max: 13.2631
Time = 0.17

PIMPLE: iteration 1
smoothSolver:  Solving for Ux, Initial residual = 0.0133803, Final residual = 0.00110691, No Iterations 2
smoothSolver:  Solving for Uy, Initial residual = 0.011287, Final residual = 0.000852576, No Iterations 2
smoothSolver:  Solving for Uz, Initial residual = 0.0878379, Final residual = 0.00425764, No Iterations 2
GAMG:  Solving for p, Initial residual = 0.0439023, Final residual = 0.000335587, No Iterations 4
GAMG:  Solving for p, Initial residual = 0.000330841, Final residual = 2.50411e-06, No Iterations 9
time step continuity errors : sum local = 1.39888e-06, global = 8.44957e-07, cumulative = -1.64182e-05
GAMG:  Solving for p, Initial residual = 0.0139389, Final residual = 8.20429e-05, No Iterations 4
GAMG:  Solving for p, Initial residual = 8.25562e-05, Final residual = 7.18373e-07, No Iterations 9
time step continuity errors : sum local = 3.99885e-07, global = -2.56472e-07, cumulative = -1.66747e-05
smoothSolver:  Solving for epsilon, Initial residual = 0.953949, Final residual = 1.50661e-09, No Iterations 1
smoothSolver:  Solving for k, Initial residual = 0.0310155, Final residual = 0.00234017, No Iterations 2
bounding k, min: -9.39983e-05 max: 0.2 average: 0.0289145
PIMPLE: iteration 2
smoothSolver:  Solving for Ux, Initial residual = 0.0119562, Final residual = 5.79117e-06, No Iterations 7
smoothSolver:  Solving for Uy, Initial residual = 0.00872655, Final residual = 8.80398e-06, No Iterations 8
smoothSolver:  Solving for Uz, Initial residual = 0.0851604, Final residual = 9.84889e-06, No Iterations 13
GAMG:  Solving for p, Initial residual = 0.0401195, Final residual = 0.000251914, No Iterations 4
GAMG:  Solving for p, Initial residual = 0.000256746, Final residual = 1.33761e-06, No Iterations 9
time step continuity errors : sum local = 7.20569e-07, global = -4.60758e-07, cumulative = -1.71354e-05
GAMG:  Solving for p, Initial residual = 0.0139901, Final residual = 0.000116477, No Iterations 4
GAMG:  Solving for p, Initial residual = 0.000115634, Final residual = 4.55072e-07, No Iterations 9
time step continuity errors : sum local = 2.45401e-07, global = 1.60184e-07, cumulative = -1.69752e-05
smoothSolver:  Solving for epsilon, Initial residual = 0.161934, Final residual = 9.6047e-06, No Iterations 62
smoothSolver:  Solving for k, Initial residual = 0.00274358, Final residual = 5.88342e-06, No Iterations 4
ExecutionTime = 2.92 s  ClockTime = 3 s

scalarTransport execute: s
smoothSolver:  Solving for s, Initial residual = 0.0619735, Final residual = 0.00586599, No Iterations 2

Courant Number mean: 4.83132 max: 13.6623
Time = 0.18

PIMPLE: iteration 1
smoothSolver:  Solving for Ux, Initial residual = 0.0125004, Final residual = 0.00106563, No Iterations 2
smoothSolver:  Solving for Uy, Initial residual = 0.0106423, Final residual = 0.00078, No Iterations 2
smoothSolver:  Solving for Uz, Initial residual = 0.0791058, Final residual = 0.00406435, No Iterations 2
GAMG:  Solving for p, Initial residual = 0.041966, Final residual = 0.000319236, No Iterations 4
GAMG:  Solving for p, Initial residual = 0.000313215, Final residual = 1.67131e-06, No Iterations 9
time step continuity errors : sum local = 9.44714e-07, global = 5.59564e-07, cumulative = -1.64157e-05
GAMG:  Solving for p, Initial residual = 0.0131583, Final residual = 8.0366e-05, No Iterations 4
GAMG:  Solving for p, Initial residual = 8.10659e-05, Final residual = 5.99467e-07, No Iterations 9
time step continuity errors : sum local = 3.3684e-07, global = -2.17162e-07, cumulative = -1.66328e-05
smoothSolver:  Solving for epsilon, Initial residual = 0.939158, Final residual = 1.92142e-09, No Iterations 1
smoothSolver:  Solving for k, Initial residual = 0.031686, Final residual = 0.00234852, No Iterations 2
PIMPLE: iteration 2
smoothSolver:  Solving for Ux, Initial residual = 0.0112604, Final residual = 5.03127e-06, No Iterations 7
smoothSolver:  Solving for Uy, Initial residual = 0.00768088, Final residual = 9.40524e-06, No Iterations 6
smoothSolver:  Solving for Uz, Initial residual = 0.075625, Final residual = 6.00049e-06, No Iterations 8
GAMG:  Solving for p, Initial residual = 0.0384376, Final residual = 0.000257052, No Iterations 4
GAMG:  Solving for p, Initial residual = 0.000262751, Final residual = 1.16779e-06, No Iterations 9
time step continuity errors : sum local = 6.3858e-07, global = -4.02385e-07, cumulative = -1.70352e-05
GAMG:  Solving for p, Initial residual = 0.0135842, Final residual = 0.000109822, No Iterations 4
GAMG:  Solving for p, Initial residual = 0.000108829, Final residual = 8.89767e-07, No Iterations 8
time step continuity errors : sum local = 4.88271e-07, global = -6.24256e-08, cumulative = -1.70977e-05
smoothSolver:  Solving for epsilon, Initial residual = 0.15196, Final residual = 4.27569e-06, No Iterations 7
smoothSolver:  Solving for k, Initial residual = 0.00331508, Final residual = 7.44841e-06, No Iterations 4
ExecutionTime = 3.02 s  ClockTime = 3 s

scalarTransport execute: s
smoothSolver:  Solving for s, Initial residual = 0.057055, Final residual = 0.00538132, No Iterations 2

Courant Number mean: 4.917 max: 13.9475
Time = 0.19

PIMPLE: iteration 1
smoothSolver:  Solving for Ux, Initial residual = 0.0114766, Final residual = 0.00100921, No Iterations 2
smoothSolver:  Solving for Uy, Initial residual = 0.0098424, Final residual = 0.000711029, No Iterations 2
smoothSolver:  Solving for Uz, Initial residual = 0.0752629, Final residual = 0.00417861, No Iterations 2
GAMG:  Solving for p, Initial residual = 0.0400354, Final residual = 0.000319837, No Iterations 4
GAMG:  Solving for p, Initial residual = 0.00031217, Final residual = 2.11959e-06, No Iterations 9
time step continuity errors : sum local = 1.20398e-06, global = 7.39229e-07, cumulative = -1.63584e-05
GAMG:  Solving for p, Initial residual = 0.0134219, Final residual = 7.20734e-05, No Iterations 4
GAMG:  Solving for p, Initial residual = 7.28419e-05, Final residual = 5.63609e-07, No Iterations 9
time step continuity errors : sum local = 3.17707e-07, global = -2.09808e-07, cumulative = -1.65682e-05
smoothSolver:  Solving for epsilon, Initial residual = 0.981489, Final residual = 5.88096e-10, No Iterations 1
bounding epsilon, min: -0.00140211 max: 200 average: 1.42916
smoothSolver:  Solving for k, Initial residual = 0.0318477, Final residual = 0.00241685, No Iterations 2
bounding k, min: -3.40808e-05 max: 0.2 average: 0.031346
PIMPLE: iteration 2
smoothSolver:  Solving for Ux, Initial residual = 0.0110603, Final residual = 8.61468e-06, No Iterations 8
smoothSolver:  Solving for Uy, Initial residual = 0.00802522, Final residual = 9.74361e-06, No Iterations 20
smoothSolver:  Solving for Uz, Initial residual = 0.0823516, Final residual = 9.7134e-06, No Iterations 96
GAMG:  Solving for p, Initial residual = 0.0372412, Final residual = 0.000292703, No Iterations 4
GAMG:  Solving for p, Initial residual = 0.000302006, Final residual = 1.53175e-06, No Iterations 9
time step continuity errors : sum local = 8.32984e-07, global = -5.41291e-07, cumulative = -1.71095e-05
GAMG:  Solving for p, Initial residual = 0.0144402, Final residual = 0.00011827, No Iterations 4
GAMG:  Solving for p, Initial residual = 0.000116656, Final residual = 4.30433e-07, No Iterations 9
time step continuity errors : sum local = 2.35915e-07, global = 1.55942e-07, cumulative = -1.69536e-05
smoothSolver:  Solving for epsilon, Initial residual = 0.145467, Final residual = 9.72139e-06, No Iterations 191
smoothSolver:  Solving for k, Initial residual = 0.00231849, Final residual = 5.73957e-06, No Iterations 4
ExecutionTime = 3.17 s  ClockTime = 3 s

scalarTransport execute: s
smoothSolver:  Solving for s, Initial residual = 0.0532175, Final residual = 0.00511097, No Iterations 2

Courant Number mean: 4.99386 max: 14.2577
Time = 0.2

PIMPLE: iteration 1
smoothSolver:  Solving for Ux, Initial residual = 0.0107416, Final residual = 0.000973836, No Iterations 2
smoothSolver:  Solving for Uy, Initial residual = 0.0093931, Final residual = 0.000685275, No Iterations 2
smoothSolver:  Solving for Uz, Initial residual = 0.0736568, Final residual = 0.00429632, No Iterations 2
GAMG:  Solving for p, Initial residual = 0.0389686, Final residual = 0.000350265, No Iterations 4
GAMG:  Solving for p, Initial residual = 0.000340681, Final residual = 2.07885e-06, No Iterations 9
time step continuity errors : sum local = 1.22166e-06, global = 7.76163e-07, cumulative = -1.61774e-05
GAMG:  Solving for p, Initial residual = 0.012788, Final residual = 8.37538e-05, No Iterations 4
GAMG:  Solving for p, Initial residual = 8.48048e-05, Final residual = 6.01524e-07, No Iterations 9
time step continuity errors : sum local = 3.50376e-07, global = -2.36282e-07, cumulative = -1.64137e-05
smoothSolver:  Solving for epsilon, Initial residual = 0.941406, Final residual = 1.81641e-09, No Iterations 1
smoothSolver:  Solving for k, Initial residual = 0.0326714, Final residual = 0.00254719, No Iterations 2
PIMPLE: iteration 2
smoothSolver:  Solving for Ux, Initial residual = 0.0103545, Final residual = 5.36701e-06, No Iterations 7
smoothSolver:  Solving for Uy, Initial residual = 0.00656828, Final residual = 8.02443e-06, No Iterations 6
smoothSolver:  Solving for Uz, Initial residual = 0.0670713, Final residual = 6.08166e-06, No Iterations 8
GAMG:  Solving for p, Initial residual = 0.036252, Final residual = 0.000334198, No Iterations 4
GAMG:  Solving for p, Initial residual = 0.000346486, Final residual = 1.48455e-06, No Iterations 9
time step continuity errors : sum local = 7.82296e-07, global = -5.11139e-07, cumulative = -1.69248e-05
GAMG:  Solving for p, Initial residual = 0.0142125, Final residual = 0.000141879, No Iterations 4
GAMG:  Solving for p, Initial residual = 0.000139646, Final residual = 4.63359e-07, No Iterations 9
time step continuity errors : sum local = 2.46562e-07, global = 1.63474e-07, cumulative = -1.67614e-05
smoothSolver:  Solving for epsilon, Initial residual = 0.136402, Final residual = 4.19875e-06, No Iterations 7
smoothSolver:  Solving for k, Initial residual = 0.00363366, Final residual = 9.45698e-06, No Iterations 4
ExecutionTime = 3.33 s  ClockTime = 3 s

scalarTransport execute: s
smoothSolver:  Solving for s, Initial residual = 0.0496767, Final residual = 0.00485216, No Iterations 2

scalarTransport write: sTransport
	s

Courant Number mean: 5.06228 max: 14.4802
Time = 0.21

PIMPLE: iteration 1
smoothSolver:  Solving for Ux, Initial residual = 0.0102745, Final residual = 0.000929438, No Iterations 2
smoothSolver:  Solving for Uy, Initial residual = 0.0089488, Final residual = 0.000630743, No Iterations 2
smoothSolver:  Solving for Uz, Initial residual = 0.0673343, Final residual = 0.00399232, No Iterations 2
GAMG:  Solving for p, Initial residual = 0.034882, Final residual = 0.000183143, No Iterations 5
GAMG:  Solving for p, Initial residual = 0.000176999, Final residual = 1.33271e-06, No Iterations 9
time step continuity errors : sum local = 7.89461e-07, global = -1.33998e-07, cumulative = -1.68954e-05
GAMG:  Solving for p, Initial residual = 0.0119399, Final residual = 9.21895e-05, No Iterations 4
GAMG:  Solving for p, Initial residual = 9.35288e-05, Final residual = 5.42468e-07, No Iterations 9
time step continuity errors : sum local = 3.17968e-07, global = -2.07166e-07, cumulative = -1.71025e-05
smoothSolver:  Solving for epsilon, Initial residual = 0.962047, Final residual = 1.09634e-09, No Iterations 1
smoothSolver:  Solving for k, Initial residual = 0.0335789, Final residual = 0.00263054, No Iterations 2
PIMPLE: iteration 2
smoothSolver:  Solving for Ux, Initial residual = 0.00955419, Final residual = 5.10763e-06, No Iterations 7
smoothSolver:  Solving for Uy, Initial residual = 0.00605027, Final residual = 7.02447e-06, No Iterations 6
smoothSolver:  Solving for Uz, Initial residual = 0.0615084, Final residual = 6.0509e-06, No Iterations 8
GAMG:  Solving for p, Initial residual = 0.0337685, Final residual = 0.00032855, No Iterations 4
GAMG:  Solving for p, Initial residual = 0.000338974, Final residual = 3.27383e-06, No Iterations 8
time step continuity errors : sum local = 1.83601e-06, global = 1.52508e-07, cumulative = -1.695e-05
GAMG:  Solving for p, Initial residual = 0.0125987, Final residual = 0.000124203, No Iterations 4
GAMG:  Solving for p, Initial residual = 0.000122687, Final residual = 4.31038e-07, No Iterations 9
time step continuity errors : sum local = 2.43423e-07, global = 1.64765e-07, cumulative = -1.67853e-05
smoothSolver:  Solving for epsilon, Initial residual = 0.128848, Final residual = 5.54663e-06, No Iterations 9
smoothSolver:  Solving for k, Initial residual = 0.00231314, Final residual = 6.29862e-06, No Iterations 4
ExecutionTime = 3.42 s  ClockTime = 3 s

scalarTransport execute: s
smoothSolver:  Solving for s, Initial residual = 0.0463176, Final residual = 0.00428864, No Iterations 2

Courant Number mean: 5.12446 max: 14.6475
Time = 0.22

PIMPLE: iteration 1
smoothSolver:  Solving for Ux, Initial residual = 0.00973605, Final residual = 0.000905204, No Iterations 2
smoothSolver:  Solving for Uy, Initial residual = 0.00847878, Final residual = 0.000578604, No Iterations 2
smoothSolver:  Solving for Uz, Initial residual = 0.0619887, Final residual = 0.00372121, No Iterations 2
GAMG:  Solving for p, Initial residual = 0.0336655, Final residual = 0.000161012, No Iterations 5
GAMG:  Solving for p, Initial residual = 0.000154922, Final residual = 1.36269e-06, No Iterations 8
time step continuity errors : sum local = 8.2048e-07, global = 4.90157e-07, cumulative = -1.62951e-05
GAMG:  Solving for p, Initial residual = 0.0120421, Final residual = 8.95391e-05, No Iterations 4
GAMG:  Solving for p, Initial residual = 9.08553e-05, Final residual = 4.15693e-07, No Iterations 9
time step continuity errors : sum local = 2.47537e-07, global = -1.57394e-07, cumulative = -1.64525e-05
smoothSolver:  Solving for epsilon, Initial residual = 0.979832, Final residual = 4.33363e-10, No Iterations 1
smoothSolver:  Solving for k, Initial residual = 0.0343848, Final residual = 0.00270961, No Iterations 2
PIMPLE: iteration 2
smoothSolver:  Solving for Ux, Initial residual = 0.00957178, Final residual = 5.43124e-06, No Iterations 7
smoothSolver:  Solving for Uy, Initial residual = 0.00566846, Final residual = 6.38341e-06, No Iterations 6
smoothSolver:  Solving for Uz, Initial residual = 0.0598232, Final residual = 5.82637e-06, No Iterations 8
GAMG:  Solving for p, Initial residual = 0.0326548, Final residual = 0.000161828, No Iterations 5
GAMG:  Solving for p, Initial residual = 0.000167652, Final residual = 1.48491e-06, No Iterations 8
time step continuity errors : sum local = 8.55515e-07, global = -5.67367e-07, cumulative = -1.70199e-05
GAMG:  Solving for p, Initial residual = 0.0128189, Final residual = 0.000112753, No Iterations 4
GAMG:  Solving for p, Initial residual = 0.000111422, Final residual = 9.41472e-07, No Iterations 8
time step continuity errors : sum local = 5.46043e-07, global = -3.86125e-08, cumulative = -1.70585e-05
smoothSolver:  Solving for epsilon, Initial residual = 0.119939, Final residual = 3.45834e-06, No Iterations 8
smoothSolver:  Solving for k, Initial residual = 0.00197222, Final residual = 5.32286e-06, No Iterations 4
ExecutionTime = 3.51 s  ClockTime = 4 s

scalarTransport execute: s
smoothSolver:  Solving for s, Initial residual = 0.0432641, Final residual = 0.00383187, No Iterations 2

Courant Number mean: 5.18159 max: 14.8162
Time = 0.23

PIMPLE: iteration 1
smoothSolver:  Solving for Ux, Initial residual = 0.00937661, Final residual = 0.000884279, No Iterations 2
smoothSolver:  Solving for Uy, Initial residual = 0.00824237, Final residual = 0.00054807, No Iterations 2
smoothSolver:  Solving for Uz, Initial residual = 0.0597898, Final residual = 0.00363907, No Iterations 2
GAMG:  Solving for p, Initial residual = 0.0330571, Final residual = 0.000168979, No Iterations 5
GAMG:  Solving for p, Initial residual = 0.000162117, Final residual = 1.44583e-06, No Iterations 8
time step continuity errors : sum local = 8.71688e-07, global = 5.20741e-07, cumulative = -1.65377e-05
GAMG:  Solving for p, Initial residual = 0.0122337, Final residual = 0.000102352, No Iterations 4
GAMG:  Solving for p, Initial residual = 0.00010391, Final residual = 4.80896e-07, No Iterations 9
time step continuity errors : sum local = 2.86704e-07, global = -1.82532e-07, cumulative = -1.67203e-05
smoothSolver:  Solving for epsilon, Initial residual = 0.953444, Final residual = 9.19993e-10, No Iterations 1
smoothSolver:  Solving for k, Initial residual = 0.0361658, Final residual = 0.00281402, No Iterations 2
PIMPLE: iteration 2
smoothSolver:  Solving for Ux, Initial residual = 0.00913658, Final residual = 5.42905e-06, No Iterations 7
smoothSolver:  Solving for Uy, Initial residual = 0.00543127, Final residual = 6.19631e-06, No Iterations 6
smoothSolver:  Solving for Uz, Initial residual = 0.0593295, Final residual = 5.4741e-06, No Iterations 8
GAMG:  Solving for p, Initial residual = 0.031823, Final residual = 0.000152714, No Iterations 5
GAMG:  Solving for p, Initial residual = 0.000158494, Final residual = 1.31092e-06, No Iterations 8
time step continuity errors : sum local = 7.53733e-07, global = -4.88477e-07, cumulative = -1.72087e-05
GAMG:  Solving for p, Initial residual = 0.0127842, Final residual = 0.000111083, No Iterations 4
GAMG:  Solving for p, Initial residual = 0.000109849, Final residual = 9.00285e-07, No Iterations 8
time step continuity errors : sum local = 5.20719e-07, global = -3.95824e-08, cumulative = -1.72483e-05
smoothSolver:  Solving for epsilon, Initial residual = 0.108508, Final residual = 5.62442e-06, No Iterations 7
smoothSolver:  Solving for k, Initial residual = 0.00142441, Final residual = 4.21121e-06, No Iterations 4
ExecutionTime = 3.6 s  ClockTime = 4 s

scalarTransport execute: s
smoothSolver:  Solving for s, Initial residual = 0.0405651, Final residual = 0.00345113, No Iterations 2

Courant Number mean: 5.23467 max: 15.079
Time = 0.24

PIMPLE: iteration 1
smoothSolver:  Solving for Ux, Initial residual = 0.00895925, Final residual = 0.000832071, No Iterations 2
smoothSolver:  Solving for Uy, Initial residual = 0.00802338, Final residual = 0.000510247, No Iterations 2
smoothSolver:  Solving for Uz, Initial residual = 0.0570206, Final residual = 0.00348329, No Iterations 2
GAMG:  Solving for p, Initial residual = 0.0317258, Final residual = 0.000166996, No Iterations 5
GAMG:  Solving for p, Initial residual = 0.000159461, Final residual = 1.44967e-06, No Iterations 8
time step continuity errors : sum local = 8.78903e-07, global = 5.23852e-07, cumulative = -1.67245e-05
GAMG:  Solving for p, Initial residual = 0.0116414, Final residual = 8.83171e-05, No Iterations 4
GAMG:  Solving for p, Initial residual = 8.97775e-05, Final residual = 9.9874e-07, No Iterations 8
time step continuity errors : sum local = 5.97944e-07, global = 8.68558e-08, cumulative = -1.66376e-05
smoothSolver:  Solving for epsilon, Initial residual = 0.992853, Final residual = 1.0816e-10, No Iterations 1
smoothSolver:  Solving for k, Initial residual = 0.0369455, Final residual = 0.00292011, No Iterations 2
PIMPLE: iteration 2
smoothSolver:  Solving for Ux, Initial residual = 0.00853973, Final residual = 5.50893e-06, No Iterations 7
smoothSolver:  Solving for Uy, Initial residual = 0.00524326, Final residual = 5.76202e-06, No Iterations 6
smoothSolver:  Solving for Uz, Initial residual = 0.0576203, Final residual = 5.31094e-06, No Iterations 8
GAMG:  Solving for p, Initial residual = 0.0295228, Final residual = 0.000147043, No Iterations 5
GAMG:  Solving for p, Initial residual = 0.000152583, Final residual = 1.27099e-06, No Iterations 8
time step continuity errors : sum local = 7.44581e-07, global = -4.95292e-07, cumulative = -1.71329e-05
GAMG:  Solving for p, Initial residual = 0.0112811, Final residual = 9.25385e-05, No Iterations 4
GAMG:  Solving for p, Initial residual = 9.14754e-05, Final residual = 8.29979e-07, No Iterations 8
time step continuity errors : sum local = 4.89484e-07, global = -3.1014e-08, cumulative = -1.71639e-05
smoothSolver:  Solving for epsilon, Initial residual = 0.0978673, Final residual = 5.46148e-06, No Iterations 7
smoothSolver:  Solving for k, Initial residual = 0.00100364, Final residual = 8.5448e-06, No Iterations 3
ExecutionTime = 3.71 s  ClockTime = 4 s

scalarTransport execute: s
smoothSolver:  Solving for s, Initial residual = 0.0381311, Final residual = 0.00293148, No Iterations 2

Courant Number mean: 5.28515 max: 15.3874
Time = 0.25

PIMPLE: iteration 1
smoothSolver:  Solving for Ux, Initial residual = 0.00839543, Final residual = 0.000794562, No Iterations 2
smoothSolver:  Solving for Uy, Initial residual = 0.00763332, Final residual = 0.000476415, No Iterations 2
smoothSolver:  Solving for Uz, Initial residual = 0.0549728, Final residual = 0.00342626, No Iterations 2
GAMG:  Solving for p, Initial residual = 0.0284276, Final residual = 0.000138736, No Iterations 5
GAMG:  Solving for p, Initial residual = 0.000132165, Final residual = 1.13933e-06, No Iterations 8
time step continuity errors : sum local = 7.26132e-07, global = 4.60155e-07, cumulative = -1.67038e-05
GAMG:  Solving for p, Initial residual = 0.0109573, Final residual = 8.03446e-05, No Iterations 4
GAMG:  Solving for p, Initial residual = 8.15577e-05, Final residual = 8.49777e-07, No Iterations 8
time step continuity errors : sum local = 5.35658e-07, global = 6.47981e-08, cumulative = -1.6639e-05
smoothSolver:  Solving for epsilon, Initial residual = 0.965711, Final residual = 3.19072e-10, No Iterations 1
smoothSolver:  Solving for k, Initial residual = 0.0385856, Final residual = 0.00303147, No Iterations 2
PIMPLE: iteration 2
smoothSolver:  Solving for Ux, Initial residual = 0.00881668, Final residual = 6.24242e-06, No Iterations 7
smoothSolver:  Solving for Uy, Initial residual = 0.0051968, Final residual = 5.69121e-06, No Iterations 6
smoothSolver:  Solving for Uz, Initial residual = 0.0536495, Final residual = 4.73428e-06, No Iterations 8
GAMG:  Solving for p, Initial residual = 0.0284846, Final residual = 0.000273837, No Iterations 4
GAMG:  Solving for p, Initial residual = 0.000286362, Final residual = 2.38464e-06, No Iterations 8
time step continuity errors : sum local = 1.40646e-06, global = 9.61138e-08, cumulative = -1.65429e-05
GAMG:  Solving for p, Initial residual = 0.0110199, Final residual = 8.44861e-05, No Iterations 4
GAMG:  Solving for p, Initial residual = 8.33981e-05, Final residual = 7.41337e-07, No Iterations 8
time step continuity errors : sum local = 4.40784e-07, global = -2.15619e-08, cumulative = -1.65644e-05
smoothSolver:  Solving for epsilon, Initial residual = 0.0868483, Final residual = 2.9982e-06, No Iterations 7
smoothSolver:  Solving for k, Initial residual = 0.000703411, Final residual = 6.33862e-06, No Iterations 3
ExecutionTime = 3.8 s  ClockTime = 4 s

scalarTransport execute: s
smoothSolver:  Solving for s, Initial residual = 0.0356651, Final residual = 0.00266064, No Iterations 2

Courant Number mean: 5.33346 max: 15.7451
Time = 0.26

PIMPLE: iteration 1
smoothSolver:  Solving for Ux, Initial residual = 0.00812708, Final residual = 0.000778926, No Iterations 2
smoothSolver:  Solving for Uy, Initial residual = 0.00750391, Final residual = 0.000451145, No Iterations 2
smoothSolver:  Solving for Uz, Initial residual = 0.0515735, Final residual = 0.0031879, No Iterations 2
GAMG:  Solving for p, Initial residual = 0.0289422, Final residual = 0.000253449, No Iterations 4
GAMG:  Solving for p, Initial residual = 0.00024114, Final residual = 1.02857e-06, No Iterations 9
time step continuity errors : sum local = 6.60669e-07, global = 4.23355e-07, cumulative = -1.61411e-05
GAMG:  Solving for p, Initial residual = 0.00987286, Final residual = 9.08196e-05, No Iterations 3
GAMG:  Solving for p, Initial residual = 9.20025e-05, Final residual = 9.16563e-07, No Iterations 8
time step continuity errors : sum local = 5.82931e-07, global = -4.00419e-07, cumulative = -1.65415e-05
smoothSolver:  Solving for epsilon, Initial residual = 0.99497, Final residual = 3.25032e-11, No Iterations 1
smoothSolver:  Solving for k, Initial residual = 0.0383383, Final residual = 0.00299316, No Iterations 2
PIMPLE: iteration 2
smoothSolver:  Solving for Ux, Initial residual = 0.00801033, Final residual = 5.55881e-06, No Iterations 7
smoothSolver:  Solving for Uy, Initial residual = 0.00502774, Final residual = 5.35903e-06, No Iterations 6
smoothSolver:  Solving for Uz, Initial residual = 0.0520818, Final residual = 4.91035e-06, No Iterations 8
GAMG:  Solving for p, Initial residual = 0.0281204, Final residual = 0.000273915, No Iterations 4
GAMG:  Solving for p, Initial residual = 0.000285119, Final residual = 1.25585e-06, No Iterations 9
time step continuity errors : sum local = 7.6656e-07, global = -5.364e-07, cumulative = -1.70779e-05
GAMG:  Solving for p, Initial residual = 0.0102702, Final residual = 7.37576e-05, No Iterations 4
GAMG:  Solving for p, Initial residual = 7.29465e-05, Final residual = 8.79516e-07, No Iterations 8
time step continuity errors : sum local = 5.39765e-07, global = -2.57285e-08, cumulative = -1.71036e-05
smoothSolver:  Solving for epsilon, Initial residual = 0.0754581, Final residual = 7.28824e-06, No Iterations 6
smoothSolver:  Solving for k, Initial residual = 0.000498941, Final residual = 4.66028e-06, No Iterations 3
ExecutionTime = 3.88 s  ClockTime = 4 s

scalarTransport execute: s
smoothSolver:  Solving for s, Initial residual = 0.0337868, Final residual = 0.00241951, No Iterations 2

Courant Number mean: 5.38086 max: 16.0128
Time = 0.27

PIMPLE: iteration 1
smoothSolver:  Solving for Ux, Initial residual = 0.00773442, Final residual = 0.00074341, No Iterations 2
smoothSolver:  Solving for Uy, Initial residual = 0.00720436, Final residual = 0.00042141, No Iterations 2
smoothSolver:  Solving for Uz, Initial residual = 0.0510543, Final residual = 0.00310353, No Iterations 2
GAMG:  Solving for p, Initial residual = 0.0279592, Final residual = 0.000130106, No Iterations 5
GAMG:  Solving for p, Initial residual = 0.000123074, Final residual = 1.01662e-06, No Iterations 8
time step continuity errors : sum local = 6.69716e-07, global = 4.46409e-07, cumulative = -1.66572e-05
GAMG:  Solving for p, Initial residual = 0.00929231, Final residual = 9.17469e-05, No Iterations 3
GAMG:  Solving for p, Initial residual = 9.29211e-05, Final residual = 9.8027e-07, No Iterations 8
time step continuity errors : sum local = 6.40191e-07, global = -4.4969e-07, cumulative = -1.71069e-05
smoothSolver:  Solving for epsilon, Initial residual = 0.974791, Final residual = 8.63102e-11, No Iterations 1
smoothSolver:  Solving for k, Initial residual = 0.0384695, Final residual = 0.00300251, No Iterations 2
PIMPLE: iteration 2
smoothSolver:  Solving for Ux, Initial residual = 0.00799028, Final residual = 5.46161e-06, No Iterations 7
smoothSolver:  Solving for Uy, Initial residual = 0.00488996, Final residual = 5.22116e-06, No Iterations 6
smoothSolver:  Solving for Uz, Initial residual = 0.0487615, Final residual = 4.77334e-06, No Iterations 8
GAMG:  Solving for p, Initial residual = 0.0273491, Final residual = 0.000252703, No Iterations 4
GAMG:  Solving for p, Initial residual = 0.000264198, Final residual = 2.28674e-06, No Iterations 8
time step continuity errors : sum local = 1.46856e-06, global = 5.72829e-08, cumulative = -1.70496e-05
GAMG:  Solving for p, Initial residual = 0.00974532, Final residual = 6.18795e-05, No Iterations 4
GAMG:  Solving for p, Initial residual = 6.11222e-05, Final residual = 7.35327e-07, No Iterations 8
time step continuity errors : sum local = 4.75588e-07, global = -1.53441e-08, cumulative = -1.7065e-05
smoothSolver:  Solving for epsilon, Initial residual = 0.0660942, Final residual = 7.01567e-06, No Iterations 6
smoothSolver:  Solving for k, Initial residual = 0.000350887, Final residual = 3.52758e-06, No Iterations 3
ExecutionTime = 3.98 s  ClockTime = 4 s

scalarTransport execute: s
smoothSolver:  Solving for s, Initial residual = 0.0319207, Final residual = 0.00220836, No Iterations 2

Courant Number mean: 5.43787 max: 16.2193
Time = 0.28

PIMPLE: iteration 1
smoothSolver:  Solving for Ux, Initial residual = 0.00755081, Final residual = 0.000722939, No Iterations 2
smoothSolver:  Solving for Uy, Initial residual = 0.00693593, Final residual = 0.000392686, No Iterations 2
smoothSolver:  Solving for Uz, Initial residual = 0.0466555, Final residual = 0.00288516, No Iterations 2
GAMG:  Solving for p, Initial residual = 0.0261919, Final residual = 0.000251455, No Iterations 4
GAMG:  Solving for p, Initial residual = 0.000236738, Final residual = 2.16505e-06, No Iterations 8
time step continuity errors : sum local = 1.50046e-06, global = -1.97399e-07, cumulative = -1.72624e-05
GAMG:  Solving for p, Initial residual = 0.00856187, Final residual = 4.23375e-05, No Iterations 4
GAMG:  Solving for p, Initial residual = 4.29694e-05, Final residual = 6.77306e-07, No Iterations 7
time step continuity errors : sum local = 4.64258e-07, global = -3.31973e-07, cumulative = -1.75943e-05
smoothSolver:  Solving for epsilon, Initial residual = 0.9946, Final residual = 1.68252e-11, No Iterations 1
smoothSolver:  Solving for k, Initial residual = 0.0372048, Final residual = 0.00291271, No Iterations 2
PIMPLE: iteration 2
smoothSolver:  Solving for Ux, Initial residual = 0.0079019, Final residual = 5.30433e-06, No Iterations 7
smoothSolver:  Solving for Uy, Initial residual = 0.00466782, Final residual = 4.67597e-06, No Iterations 6
smoothSolver:  Solving for Uz, Initial residual = 0.0433225, Final residual = 4.1332e-06, No Iterations 8
GAMG:  Solving for p, Initial residual = 0.0255759, Final residual = 0.000229055, No Iterations 4
GAMG:  Solving for p, Initial residual = 0.000239836, Final residual = 2.17575e-06, No Iterations 8
time step continuity errors : sum local = 1.49442e-06, global = 5.30805e-08, cumulative = -1.75412e-05
GAMG:  Solving for p, Initial residual = 0.00859741, Final residual = 4.09871e-05, No Iterations 4
GAMG:  Solving for p, Initial residual = 4.05186e-05, Final residual = 6.5592e-07, No Iterations 7
time step continuity errors : sum local = 4.53135e-07, global = 3.2974e-07, cumulative = -1.72115e-05
smoothSolver:  Solving for epsilon, Initial residual = 0.0563241, Final residual = 6.47087e-06, No Iterations 6
smoothSolver:  Solving for k, Initial residual = 0.000246458, Final residual = 8.10453e-06, No Iterations 2
ExecutionTime = 4.06 s  ClockTime = 4 s

scalarTransport execute: s
smoothSolver:  Solving for s, Initial residual = 0.0299904, Final residual = 0.00201995, No Iterations 2

Courant Number mean: 5.52604 max: 16.4114
Time = 0.29

PIMPLE: iteration 1
smoothSolver:  Solving for Ux, Initial residual = 0.00732203, Final residual = 0.000696027, No Iterations 2
smoothSolver:  Solving for Uy, Initial residual = 0.00667241, Final residual = 0.000380581, No Iterations 2
smoothSolver:  Solving for Uz, Initial residual = 0.0430814, Final residual = 0.00265676, No Iterations 2
GAMG:  Solving for p, Initial residual = 0.0247282, Final residual = 0.000227395, No Iterations 4
GAMG:  Solving for p, Initial residual = 0.000215984, Final residual = 1.67893e-06, No Iterations 8
time step continuity errors : sum local = 1.23196e-06, global = -1.63823e-07, cumulative = -1.73753e-05
GAMG:  Solving for p, Initial residual = 0.00755818, Final residual = 7.47108e-05, No Iterations 3
GAMG:  Solving for p, Initial residual = 7.53436e-05, Final residual = 4.88099e-07, No Iterations 8
time step continuity errors : sum local = 3.56442e-07, global = -2.52629e-07, cumulative = -1.7628e-05
smoothSolver:  Solving for epsilon, Initial residual = 0.972903, Final residual = 3.5255e-11, No Iterations 1
smoothSolver:  Solving for k, Initial residual = 0.0342067, Final residual = 0.00272583, No Iterations 2
PIMPLE: iteration 2
smoothSolver:  Solving for Ux, Initial residual = 0.00755877, Final residual = 5.42778e-06, No Iterations 7
smoothSolver:  Solving for Uy, Initial residual = 0.00461995, Final residual = 4.4368e-06, No Iterations 6
smoothSolver:  Solving for Uz, Initial residual = 0.0394056, Final residual = 4.08926e-06, No Iterations 8
GAMG:  Solving for p, Initial residual = 0.0251658, Final residual = 0.000231604, No Iterations 4
GAMG:  Solving for p, Initial residual = 0.000240199, Final residual = 2.1976e-06, No Iterations 8
time step continuity errors : sum local = 1.61004e-06, global = 5.33695e-08, cumulative = -1.75746e-05
GAMG:  Solving for p, Initial residual = 0.00829813, Final residual = 4.42693e-05, No Iterations 4
GAMG:  Solving for p, Initial residual = 4.39435e-05, Final residual = 9.60335e-07, No Iterations 7
time step continuity errors : sum local = 7.04577e-07, global = 5.15591e-07, cumulative = -1.7059e-05
smoothSolver:  Solving for epsilon, Initial residual = 0.0486732, Final residual = 6.35497e-06, No Iterations 6
smoothSolver:  Solving for k, Initial residual = 0.0001816, Final residual = 6.42708e-06, No Iterations 2
ExecutionTime = 4.15 s  ClockTime = 4 s

scalarTransport execute: s
smoothSolver:  Solving for s, Initial residual = 0.0282378, Final residual = 0.00189999, No Iterations 2

Courant Number mean: 5.64637 max: 16.5996
Time = 0.3

PIMPLE: iteration 1
smoothSolver:  Solving for Ux, Initial residual = 0.00710387, Final residual = 0.000686726, No Iterations 2
smoothSolver:  Solving for Uy, Initial residual = 0.00666274, Final residual = 0.000375491, No Iterations 2
smoothSolver:  Solving for Uz, Initial residual = 0.0404954, Final residual = 0.00258807, No Iterations 2
GAMG:  Solving for p, Initial residual = 0.026673, Final residual = 0.000253713, No Iterations 4
GAMG:  Solving for p, Initial residual = 0.000242082, Final residual = 1.73031e-06, No Iterations 8
time step continuity errors : sum local = 1.22426e-06, global = -2.13316e-07, cumulative = -1.72723e-05
GAMG:  Solving for p, Initial residual = 0.00848955, Final residual = 7.48177e-05, No Iterations 3
GAMG:  Solving for p, Initial residual = 7.53433e-05, Final residual = 5.46822e-07, No Iterations 8
time step continuity errors : sum local = 3.8548e-07, global = -2.81529e-07, cumulative = -1.75538e-05
smoothSolver:  Solving for epsilon, Initial residual = 0.997205, Final residual = 4.68483e-12, No Iterations 1
smoothSolver:  Solving for k, Initial residual = 0.0330786, Final residual = 0.00267227, No Iterations 2
PIMPLE: iteration 2
smoothSolver:  Solving for Ux, Initial residual = 0.00751253, Final residual = 5.58039e-06, No Iterations 7
smoothSolver:  Solving for Uy, Initial residual = 0.00483364, Final residual = 4.27062e-06, No Iterations 6
smoothSolver:  Solving for Uz, Initial residual = 0.0382298, Final residual = 3.82492e-06, No Iterations 8
GAMG:  Solving for p, Initial residual = 0.0297982, Final residual = 0.000254535, No Iterations 4
GAMG:  Solving for p, Initial residual = 0.00026262, Final residual = 2.36349e-06, No Iterations 8
time step continuity errors : sum local = 1.55728e-06, global = 4.30605e-08, cumulative = -1.75108e-05
GAMG:  Solving for p, Initial residual = 0.00996596, Final residual = 4.28885e-05, No Iterations 4
GAMG:  Solving for p, Initial residual = 4.26039e-05, Final residual = 6.34274e-07, No Iterations 7
time step continuity errors : sum local = 4.18459e-07, global = 2.98227e-07, cumulative = -1.72126e-05
smoothSolver:  Solving for epsilon, Initial residual = 0.0421105, Final residual = 8.7699e-06, No Iterations 16
smoothSolver:  Solving for k, Initial residual = 0.00014792, Final residual = 5.70676e-06, No Iterations 2
ExecutionTime = 4.29 s  ClockTime = 4 s

scalarTransport execute: s
smoothSolver:  Solving for s, Initial residual = 0.02653, Final residual = 0.00178875, No Iterations 2

scalarTransport write: sTransport
	s

Courant Number mean: 5.78993 max: 16.8749
Time = 0.31

PIMPLE: iteration 1
smoothSolver:  Solving for Ux, Initial residual = 0.00706122, Final residual = 0.000664978, No Iterations 2
smoothSolver:  Solving for Uy, Initial residual = 0.00669923, Final residual = 0.000369661, No Iterations 2
smoothSolver:  Solving for Uz, Initial residual = 0.038992, Final residual = 0.00248375, No Iterations 2
[...]
time step continuity errors : sum local = 1.03179e-06, global = -2.51405e-07, cumulative = -1.22207e-05
GAMG:  Solving for p, Initial residual = 0.00485837, Final residual = 1.79793e-05, No Iterations 3
GAMG:  Solving for p, Initial residual = 1.79883e-05, Final residual = 9.82978e-07, No Iterations 3
time step continuity errors : sum local = 6.10547e-07, global = -1.40313e-07, cumulative = -1.2361e-05
smoothSolver:  Solving for epsilon, Initial residual = 0.00207977, Final residual = 0.000163748, No Iterations 1
smoothSolver:  Solving for k, Initial residual = 0.00285973, Final residual = 7.76013e-05, No Iterations 2
PIMPLE: iteration 2
smoothSolver:  Solving for Ux, Initial residual = 0.000907189, Final residual = 3.9053e-06, No Iterations 4
smoothSolver:  Solving for Uy, Initial residual = 0.00158056, Final residual = 9.91792e-06, No Iterations 4
smoothSolver:  Solving for Uz, Initial residual = 0.00370188, Final residual = 9.90524e-06, No Iterations 5
GAMG:  Solving for p, Initial residual = 0.024657, Final residual = 0.000236078, No Iterations 3
GAMG:  Solving for p, Initial residual = 0.000237357, Final residual = 1.75544e-06, No Iterations 7
time step continuity errors : sum local = 1.10656e-06, global = 2.09756e-07, cumulative = -1.21513e-05
GAMG:  Solving for p, Initial residual = 0.00508045, Final residual = 2.33717e-05, No Iterations 3
GAMG:  Solving for p, Initial residual = 2.33709e-05, Final residual = 5.26116e-07, No Iterations 5
time step continuity errors : sum local = 3.31761e-07, global = 1.52308e-07, cumulative = -1.1999e-05
smoothSolver:  Solving for epsilon, Initial residual = 0.00225539, Final residual = 2.63926e-06, No Iterations 4
smoothSolver:  Solving for k, Initial residual = 0.00268782, Final residual = 6.50242e-06, No Iterations 4
ExecutionTime = 19.22 s  ClockTime = 19 s

scalarTransport execute: s
smoothSolver:  Solving for s, Initial residual = 0.000834357, Final residual = 5.1703e-05, No Iterations 2

Courant Number mean: 13.25 max: 26.6956
Time = 1.94

PIMPLE: iteration 1
smoothSolver:  Solving for Ux, Initial residual = 0.000884686, Final residual = 3.40763e-05, No Iterations 2
smoothSolver:  Solving for Uy, Initial residual = 0.00153854, Final residual = 5.70491e-05, No Iterations 2
smoothSolver:  Solving for Uz, Initial residual = 0.00361468, Final residual = 0.000191965, No Iterations 2
GAMG:  Solving for p, Initial residual = 0.0254325, Final residual = 0.000248877, No Iterations 3
GAMG:  Solving for p, Initial residual = 0.000248858, Final residual = 1.67445e-06, No Iterations 7
time step continuity errors : sum local = 1.04139e-06, global = -2.58896e-07, cumulative = -1.22579e-05
GAMG:  Solving for p, Initial residual = 0.0048585, Final residual = 1.78612e-05, No Iterations 3
GAMG:  Solving for p, Initial residual = 1.78698e-05, Final residual = 9.62412e-07, No Iterations 3
time step continuity errors : sum local = 5.97824e-07, global = -1.39924e-07, cumulative = -1.23978e-05
smoothSolver:  Solving for epsilon, Initial residual = 0.00214725, Final residual = 0.00015881, No Iterations 1
smoothSolver:  Solving for k, Initial residual = 0.0027305, Final residual = 8.28553e-05, No Iterations 2
PIMPLE: iteration 2
smoothSolver:  Solving for Ux, Initial residual = 0.000898996, Final residual = 3.95425e-06, No Iterations 4
smoothSolver:  Solving for Uy, Initial residual = 0.00157556, Final residual = 9.94526e-06, No Iterations 4
smoothSolver:  Solving for Uz, Initial residual = 0.00371013, Final residual = 9.97772e-06, No Iterations 5
GAMG:  Solving for p, Initial residual = 0.0247289, Final residual = 0.000235031, No Iterations 3
GAMG:  Solving for p, Initial residual = 0.000236287, Final residual = 1.70608e-06, No Iterations 7
time step continuity errors : sum local = 1.07503e-06, global = 2.34102e-07, cumulative = -1.21637e-05
GAMG:  Solving for p, Initial residual = 0.00505926, Final residual = 2.29181e-05, No Iterations 3
GAMG:  Solving for p, Initial residual = 2.29174e-05, Final residual = 4.91294e-07, No Iterations 5
time step continuity errors : sum local = 3.09676e-07, global = 1.48288e-07, cumulative = -1.20154e-05
smoothSolver:  Solving for epsilon, Initial residual = 0.00221839, Final residual = 2.45018e-06, No Iterations 4
smoothSolver:  Solving for k, Initial residual = 0.00269425, Final residual = 8.25447e-06, No Iterations 4
ExecutionTime = 19.31 s  ClockTime = 19 s

scalarTransport execute: s
smoothSolver:  Solving for s, Initial residual = 0.000808782, Final residual = 5.07906e-05, No Iterations 2

Courant Number mean: 13.2511 max: 26.6943
Time = 1.95

PIMPLE: iteration 1
smoothSolver:  Solving for Ux, Initial residual = 0.00088755, Final residual = 3.41072e-05, No Iterations 2
smoothSolver:  Solving for Uy, Initial residual = 0.00153788, Final residual = 5.7087e-05, No Iterations 2
smoothSolver:  Solving for Uz, Initial residual = 0.003586, Final residual = 0.000191508, No Iterations 2
GAMG:  Solving for p, Initial residual = 0.0254243, Final residual = 0.000249, No Iterations 3
GAMG:  Solving for p, Initial residual = 0.000248978, Final residual = 1.64716e-06, No Iterations 7
time step continuity errors : sum local = 1.0243e-06, global = -2.6195e-07, cumulative = -1.22774e-05
GAMG:  Solving for p, Initial residual = 0.00485585, Final residual = 1.79192e-05, No Iterations 3
GAMG:  Solving for p, Initial residual = 1.79281e-05, Final residual = 9.75324e-07, No Iterations 3
time step continuity errors : sum local = 6.05764e-07, global = -1.35633e-07, cumulative = -1.2413e-05
smoothSolver:  Solving for epsilon, Initial residual = 0.00206822, Final residual = 0.000161737, No Iterations 1
smoothSolver:  Solving for k, Initial residual = 0.00285418, Final residual = 7.71333e-05, No Iterations 2
PIMPLE: iteration 2
smoothSolver:  Solving for Ux, Initial residual = 0.000905757, Final residual = 3.87127e-06, No Iterations 4
smoothSolver:  Solving for Uy, Initial residual = 0.00157972, Final residual = 9.89279e-06, No Iterations 4
smoothSolver:  Solving for Uz, Initial residual = 0.00369937, Final residual = 9.92372e-06, No Iterations 5
GAMG:  Solving for p, Initial residual = 0.024672, Final residual = 0.000235524, No Iterations 3
GAMG:  Solving for p, Initial residual = 0.000236798, Final residual = 1.73636e-06, No Iterations 7
time step continuity errors : sum local = 1.0955e-06, global = 2.18559e-07, cumulative = -1.21944e-05
GAMG:  Solving for p, Initial residual = 0.00507241, Final residual = 2.33881e-05, No Iterations 3
GAMG:  Solving for p, Initial residual = 2.33873e-05, Final residual = 5.2367e-07, No Iterations 5
time step continuity errors : sum local = 3.30509e-07, global = 1.52984e-07, cumulative = -1.20414e-05
smoothSolver:  Solving for epsilon, Initial residual = 0.00224814, Final residual = 2.83029e-06, No Iterations 4
smoothSolver:  Solving for k, Initial residual = 0.00265645, Final residual = 6.44953e-06, No Iterations 4
ExecutionTime = 19.39 s  ClockTime = 20 s

scalarTransport execute: s
smoothSolver:  Solving for s, Initial residual = 0.000782627, Final residual = 4.81173e-05, No Iterations 2

Courant Number mean: 13.2521 max: 26.6985
Time = 1.96

PIMPLE: iteration 1
smoothSolver:  Solving for Ux, Initial residual = 0.000884966, Final residual = 3.41352e-05, No Iterations 2
smoothSolver:  Solving for Uy, Initial residual = 0.00153755, Final residual = 5.69617e-05, No Iterations 2
smoothSolver:  Solving for Uz, Initial residual = 0.00361418, Final residual = 0.000191166, No Iterations 2
GAMG:  Solving for p, Initial residual = 0.0254204, Final residual = 0.000248829, No Iterations 3
GAMG:  Solving for p, Initial residual = 0.000248807, Final residual = 1.67142e-06, No Iterations 7
time step continuity errors : sum local = 1.03949e-06, global = -2.55758e-07, cumulative = -1.22972e-05
GAMG:  Solving for p, Initial residual = 0.00485222, Final residual = 1.77812e-05, No Iterations 3
GAMG:  Solving for p, Initial residual = 1.77899e-05, Final residual = 9.59441e-07, No Iterations 3
time step continuity errors : sum local = 5.95965e-07, global = -1.35076e-07, cumulative = -1.24323e-05
smoothSolver:  Solving for epsilon, Initial residual = 0.00214556, Final residual = 0.000158745, No Iterations 1
smoothSolver:  Solving for k, Initial residual = 0.00272039, Final residual = 8.27346e-05, No Iterations 2
PIMPLE: iteration 2
smoothSolver:  Solving for Ux, Initial residual = 0.000898174, Final residual = 3.95418e-06, No Iterations 4
smoothSolver:  Solving for Uy, Initial residual = 0.00157554, Final residual = 9.94046e-06, No Iterations 4
smoothSolver:  Solving for Uz, Initial residual = 0.00369926, Final residual = 9.95296e-06, No Iterations 5
GAMG:  Solving for p, Initial residual = 0.0247077, Final residual = 0.000234994, No Iterations 3
GAMG:  Solving for p, Initial residual = 0.00023625, Final residual = 1.71014e-06, No Iterations 7
time step continuity errors : sum local = 1.07818e-06, global = 2.32863e-07, cumulative = -1.21994e-05
GAMG:  Solving for p, Initial residual = 0.00505451, Final residual = 2.28875e-05, No Iterations 3
GAMG:  Solving for p, Initial residual = 2.28868e-05, Final residual = 4.92986e-07, No Iterations 5
time step continuity errors : sum local = 3.10913e-07, global = 1.48956e-07, cumulative = -1.20505e-05
smoothSolver:  Solving for epsilon, Initial residual = 0.00221843, Final residual = 2.44905e-06, No Iterations 4
smoothSolver:  Solving for k, Initial residual = 0.00268083, Final residual = 8.15048e-06, No Iterations 4
ExecutionTime = 19.47 s  ClockTime = 20 s

scalarTransport execute: s
smoothSolver:  Solving for s, Initial residual = 0.000770586, Final residual = 4.79239e-05, No Iterations 2

Courant Number mean: 13.2531 max: 26.6971
Time = 1.97

PIMPLE: iteration 1
smoothSolver:  Solving for Ux, Initial residual = 0.000888418, Final residual = 3.42024e-05, No Iterations 2
smoothSolver:  Solving for Uy, Initial residual = 0.00153625, Final residual = 5.71225e-05, No Iterations 2
smoothSolver:  Solving for Uz, Initial residual = 0.00357451, Final residual = 0.000191567, No Iterations 2
GAMG:  Solving for p, Initial residual = 0.0253968, Final residual = 0.000248922, No Iterations 3
GAMG:  Solving for p, Initial residual = 0.0002489, Final residual = 1.64724e-06, No Iterations 7
time step continuity errors : sum local = 1.02435e-06, global = -2.64073e-07, cumulative = -1.23145e-05
GAMG:  Solving for p, Initial residual = 0.00485882, Final residual = 1.79936e-05, No Iterations 3
GAMG:  Solving for p, Initial residual = 1.80026e-05, Final residual = 9.79358e-07, No Iterations 3
time step continuity errors : sum local = 6.08272e-07, global = -1.3714e-07, cumulative = -1.24517e-05
smoothSolver:  Solving for epsilon, Initial residual = 0.00206404, Final residual = 0.000161919, No Iterations 1
smoothSolver:  Solving for k, Initial residual = 0.0028423, Final residual = 7.71007e-05, No Iterations 2
PIMPLE: iteration 2
smoothSolver:  Solving for Ux, Initial residual = 0.000905309, Final residual = 3.86469e-06, No Iterations 4
smoothSolver:  Solving for Uy, Initial residual = 0.0015783, Final residual = 9.90023e-06, No Iterations 4
smoothSolver:  Solving for Uz, Initial residual = 0.0036919, Final residual = 9.90143e-06, No Iterations 5
GAMG:  Solving for p, Initial residual = 0.0246501, Final residual = 0.000235631, No Iterations 3
GAMG:  Solving for p, Initial residual = 0.000236904, Final residual = 1.74166e-06, No Iterations 7
time step continuity errors : sum local = 1.09878e-06, global = 2.12906e-07, cumulative = -1.22388e-05
GAMG:  Solving for p, Initial residual = 0.0050732, Final residual = 2.32439e-05, No Iterations 3
GAMG:  Solving for p, Initial residual = 2.32431e-05, Final residual = 5.19749e-07, No Iterations 5
time step continuity errors : sum local = 3.28016e-07, global = 1.52625e-07, cumulative = -1.20861e-05
smoothSolver:  Solving for epsilon, Initial residual = 0.00224041, Final residual = 2.56071e-06, No Iterations 4
smoothSolver:  Solving for k, Initial residual = 0.00267776, Final residual = 6.29314e-06, No Iterations 4
ExecutionTime = 19.55 s  ClockTime = 20 s

scalarTransport execute: s
smoothSolver:  Solving for s, Initial residual = 0.000757076, Final residual = 4.5221e-05, No Iterations 2

Courant Number mean: 13.2541 max: 26.7014
Time = 1.98

PIMPLE: iteration 1
smoothSolver:  Solving for Ux, Initial residual = 0.000886515, Final residual = 3.43059e-05, No Iterations 2
smoothSolver:  Solving for Uy, Initial residual = 0.0015378, Final residual = 5.69511e-05, No Iterations 2
smoothSolver:  Solving for Uz, Initial residual = 0.00361916, Final residual = 0.000192096, No Iterations 2
GAMG:  Solving for p, Initial residual = 0.0254225, Final residual = 0.000249, No Iterations 3
GAMG:  Solving for p, Initial residual = 0.000248979, Final residual = 1.67014e-06, No Iterations 7
time step continuity errors : sum local = 1.03874e-06, global = -2.55273e-07, cumulative = -1.23414e-05
GAMG:  Solving for p, Initial residual = 0.00486083, Final residual = 1.78675e-05, No Iterations 3
GAMG:  Solving for p, Initial residual = 1.78763e-05, Final residual = 9.74074e-07, No Iterations 3
time step continuity errors : sum local = 6.05081e-07, global = -1.36732e-07, cumulative = -1.24782e-05
smoothSolver:  Solving for epsilon, Initial residual = 0.00212868, Final residual = 0.00015819, No Iterations 1
smoothSolver:  Solving for k, Initial residual = 0.00268218, Final residual = 8.02211e-05, No Iterations 2
PIMPLE: iteration 2
smoothSolver:  Solving for Ux, Initial residual = 0.000897604, Final residual = 3.95734e-06, No Iterations 4
smoothSolver:  Solving for Uy, Initial residual = 0.00157652, Final residual = 9.95144e-06, No Iterations 4
smoothSolver:  Solving for Uz, Initial residual = 0.00370905, Final residual = 3.63368e-06, No Iterations 6
GAMG:  Solving for p, Initial residual = 0.0247079, Final residual = 0.000235043, No Iterations 3
GAMG:  Solving for p, Initial residual = 0.000236297, Final residual = 1.72597e-06, No Iterations 7
time step continuity errors : sum local = 1.08861e-06, global = 2.2761e-07, cumulative = -1.22505e-05
GAMG:  Solving for p, Initial residual = 0.00505475, Final residual = 2.28456e-05, No Iterations 3
GAMG:  Solving for p, Initial residual = 2.2845e-05, Final residual = 4.87113e-07, No Iterations 5
time step continuity errors : sum local = 3.07338e-07, global = 1.46758e-07, cumulative = -1.21038e-05
smoothSolver:  Solving for epsilon, Initial residual = 0.00222003, Final residual = 2.44727e-06, No Iterations 4
smoothSolver:  Solving for k, Initial residual = 0.00265502, Final residual = 8.08406e-06, No Iterations 4
ExecutionTime = 19.64 s  ClockTime = 20 s

scalarTransport execute: s
smoothSolver:  Solving for s, Initial residual = 0.000736155, Final residual = 4.46449e-05, No Iterations 2

Courant Number mean: 13.255 max: 26.7006
Time = 1.99

PIMPLE: iteration 1
smoothSolver:  Solving for Ux, Initial residual = 0.000890492, Final residual = 3.43355e-05, No Iterations 2
smoothSolver:  Solving for Uy, Initial residual = 0.00153708, Final residual = 5.70208e-05, No Iterations 2
smoothSolver:  Solving for Uz, Initial residual = 0.00358253, Final residual = 0.000192106, No Iterations 2
GAMG:  Solving for p, Initial residual = 0.0254082, Final residual = 0.000249256, No Iterations 3
GAMG:  Solving for p, Initial residual = 0.000249236, Final residual = 1.67317e-06, No Iterations 7
time step continuity errors : sum local = 1.04054e-06, global = -2.47404e-07, cumulative = -1.23512e-05
GAMG:  Solving for p, Initial residual = 0.00485475, Final residual = 1.79378e-05, No Iterations 3
GAMG:  Solving for p, Initial residual = 1.79468e-05, Final residual = 9.915e-07, No Iterations 3
time step continuity errors : sum local = 6.15849e-07, global = -1.37601e-07, cumulative = -1.24888e-05
smoothSolver:  Solving for epsilon, Initial residual = 0.00207439, Final residual = 0.000162247, No Iterations 1
smoothSolver:  Solving for k, Initial residual = 0.00283848, Final residual = 7.57919e-05, No Iterations 2
PIMPLE: iteration 2
smoothSolver:  Solving for Ux, Initial residual = 0.00090316, Final residual = 3.87521e-06, No Iterations 4
smoothSolver:  Solving for Uy, Initial residual = 0.00158013, Final residual = 9.89789e-06, No Iterations 4
smoothSolver:  Solving for Uz, Initial residual = 0.00369984, Final residual = 9.88508e-06, No Iterations 5
GAMG:  Solving for p, Initial residual = 0.0246745, Final residual = 0.000235951, No Iterations 3
GAMG:  Solving for p, Initial residual = 0.000237229, Final residual = 1.75468e-06, No Iterations 7
time step continuity errors : sum local = 1.10635e-06, global = 2.08473e-07, cumulative = -1.22803e-05
GAMG:  Solving for p, Initial residual = 0.00508013, Final residual = 2.33835e-05, No Iterations 3
GAMG:  Solving for p, Initial residual = 2.33827e-05, Final residual = 5.24239e-07, No Iterations 5
time step continuity errors : sum local = 3.30657e-07, global = 1.51384e-07, cumulative = -1.21289e-05
smoothSolver:  Solving for epsilon, Initial residual = 0.00225287, Final residual = 2.84732e-06, No Iterations 4
smoothSolver:  Solving for k, Initial residual = 0.00266498, Final residual = 6.33398e-06, No Iterations 4
ExecutionTime = 19.72 s  ClockTime = 20 s

scalarTransport execute: s
smoothSolver:  Solving for s, Initial residual = 0.000712606, Final residual = 4.2181e-05, No Iterations 2

Courant Number mean: 13.2559 max: 26.7044
Time = 2

PIMPLE: iteration 1
smoothSolver:  Solving for Ux, Initial residual = 0.000887561, Final residual = 3.43668e-05, No Iterations 2
smoothSolver:  Solving for Uy, Initial residual = 0.00153648, Final residual = 5.69283e-05, No Iterations 2
smoothSolver:  Solving for Uz, Initial residual = 0.00360144, Final residual = 0.00019132, No Iterations 2
GAMG:  Solving for p, Initial residual = 0.0254292, Final residual = 0.000249022, No Iterations 3
GAMG:  Solving for p, Initial residual = 0.000249002, Final residual = 1.66382e-06, No Iterations 7
time step continuity errors : sum local = 1.03483e-06, global = -2.62732e-07, cumulative = -1.23917e-05
GAMG:  Solving for p, Initial residual = 0.00485491, Final residual = 1.76767e-05, No Iterations 3
GAMG:  Solving for p, Initial residual = 1.76854e-05, Final residual = 9.41328e-07, No Iterations 3
time step continuity errors : sum local = 5.84756e-07, global = -1.40354e-07, cumulative = -1.2532e-05
smoothSolver:  Solving for epsilon, Initial residual = 0.00214506, Final residual = 0.000157939, No Iterations 1
smoothSolver:  Solving for k, Initial residual = 0.00270848, Final residual = 8.14164e-05, No Iterations 2
PIMPLE: iteration 2
smoothSolver:  Solving for Ux, Initial residual = 0.000896187, Final residual = 3.91385e-06, No Iterations 4
smoothSolver:  Solving for Uy, Initial residual = 0.001574, Final residual = 9.92201e-06, No Iterations 4
smoothSolver:  Solving for Uz, Initial residual = 0.00369632, Final residual = 9.93162e-06, No Iterations 5
GAMG:  Solving for p, Initial residual = 0.0246999, Final residual = 0.000234698, No Iterations 3
GAMG:  Solving for p, Initial residual = 0.000235951, Final residual = 1.68735e-06, No Iterations 7
time step continuity errors : sum local = 1.06402e-06, global = 2.4423e-07, cumulative = -1.22878e-05
GAMG:  Solving for p, Initial residual = 0.0050549, Final residual = 2.29415e-05, No Iterations 3
GAMG:  Solving for p, Initial residual = 2.29408e-05, Final residual = 4.92573e-07, No Iterations 5
time step continuity errors : sum local = 3.10715e-07, global = 1.49652e-07, cumulative = -1.21381e-05
smoothSolver:  Solving for epsilon, Initial residual = 0.00221764, Final residual = 2.44425e-06, No Iterations 4
smoothSolver:  Solving for k, Initial residual = 0.00266833, Final residual = 8.03015e-06, No Iterations 4
ExecutionTime = 19.85 s  ClockTime = 20 s

scalarTransport execute: s
smoothSolver:  Solving for s, Initial residual = 0.00070429, Final residual = 4.22432e-05, No Iterations 2

scalarTransport write: sTransport
	s

End

