No protocol specified
No protocol specified
No protocol specified
No protocol specified
No protocol specified
No protocol specified
No protocol specified
No protocol specified
No protocol specified
/*---------------------------------------------------------------------------*\
| =========                 |                                                 |
| \\      /  F ield         | OpenFOAM: The Open Source CFD Toolbox           |
|  \\    /   O peration     | Version:  2312                                  |
|   \\  /    A nd           | Website:  www.openfoam.com                      |
|    \\/     M anipulation  |                                                 |
\*---------------------------------------------------------------------------*/
Build  : _1d8f0d55f7-20231221 OPENFOAM=2312 version=v2312
Arch   : "LSB;label=32;scalar=64"
Exec   : interFoam
Date   : Mar 05 2024
Time   : 15:45:03
Host   : popeye03
PID    : 1772267
/*---------------------------------------------------------------------------*\
| =========                 |                                                 |
| \\      /  F ield         | OpenFOAM: The Open Source CFD Toolbox           |
|  \\    /   O peration     | Version:  2312                                  |
|   \\  /    A nd           | Website:  www.openfoam.com                      |
|    \\/     M anipulation  |                                                 |
\*---------------------------------------------------------------------------*/
Build  : _1d8f0d55f7-20231221 OPENFOAM=2312 version=v2312
Arch   : "LSB;label=32;scalar=64"
Exec   : interFoam
Date   : Mar 05 2024
Time   : 15:45:03
Host   : popeye03
PID    : 1772268
I/O    : uncollated
I/O    : uncollated
Case   : /home/user03/OpenFOAM/user03-v2312/run/damBreak
nProcs : 1
Case   : /home/user03/OpenFOAM/user03-v2312/run/damBreak
nProcs : 1
trapFpe: Floating point exception trapping enabled (FOAM_SIGFPE).
trapFpe: Floating point exception trapping enabled (FOAM_SIGFPE).
fileModificationChecking : Monitoring run-time modified files using timeStampMaster (fileModificationSkew 5, maxFileModificationPolls 20)
allowSystemOperations : Allowing user-supplied system call operations

// * * * * * * * * * * * * * * * * * * * * * * * * * * * * * * * * * * * * * //
fileModificationChecking : Monitoring run-time modified files using timeStampMaster (fileModificationSkew 5, maxFileModificationPolls 20)
allowSystemOperations : Allowing user-supplied system call operations

// * * * * * * * * * * * * * * * * * * * * * * * * * * * * * * * * * * * * * //
Create time

Create time

Create mesh for time = 0

Create mesh for time = 0


PIMPLE: Operating solver in PISO mode


PIMPLE: Operating solver in PISO mode

Reading field p_rgh

Reading field p_rgh

Reading field U

Reading field U

Reading/calculating face flux field phi

Reading/calculating face flux field phi

Reading transportProperties

Reading transportProperties

Selecting incompressible transport model Newtonian
Selecting incompressible transport model Newtonian
Selecting incompressible transport model Newtonian
Selecting incompressible transport model Newtonian
Selecting turbulence model type laminar
Selecting turbulence model type laminar
Selecting laminar stress model Stokes
Selecting laminar stress model Stokes

Reading g

Reading g

Reading hRef

Reading hRef
Calculating field g.h

Calculating field g.h

No MRF models present

No MRF models present

No finite volume options present
No finite volume options present
DICPCG:  Solving for pcorr, Initial residual = 0, Final residual = 0, No Iterations 0
DICPCG:  Solving for pcorr, Initial residual = 0, Final residual = 0, No Iterations 0
time step continuity errors : sum local = 0, global = 0, cumulative = 0
time step continuity errors : sum local = 0, global = 0, cumulative = 0
Courant Number mean: 0 max: 0

Starting time loop

Courant Number mean: 0 max: 0

Starting time loop

Sampled set:
    gauge_1 -> vtk
    gauge_2 -> vtk

Courant Number mean: 0 max: 0
Sampled set:
    gauge_1 -> vtk
    gauge_2 -> vtk

Interface Courant Number mean: 0 max: 0
deltaT = 0.00119048
Time = 0.00119048

PIMPLE: iteration 1
Courant Number mean: 0 max: 0
Interface Courant Number mean: 0 max: 0
deltaT = 0.00119048
Time = 0.00119048

PIMPLE: iteration 1
smoothSolver:  Solving for alpha.water, Initial residual = 0, Final residual = 0, No Iterations 0
Phase-1 volume fraction = 0.130194  Min(alpha.water) = 0  Max(alpha.water) = 1
smoothSolver:  Solving for alpha.water, Initial residual = 0, Final residual = 0, No Iterations 0
Phase-1 volume fraction = 0.130194  Min(alpha.water) = 0  Max(alpha.water) = 1
MULES: Correcting alpha.water
MULES: Correcting alpha.water
MULES: Correcting alpha.water
MULES: Correcting alpha.water
Phase-1 volume fraction = 0.130194  Min(alpha.water) = 0  Max(alpha.water) = 1
Phase-1 volume fraction = 0.130194  Min(alpha.water) = 0  Max(alpha.water) = 1
DICPCG:  Solving for p_rgh, Initial residual = 1, Final residual = 0.00312169, No Iterations 1
DICPCG:  Solving for p_rgh, Initial residual = 1, Final residual = 0.00312169, No Iterations 1
time step continuity errors : sum local = 0.000863663, global = -1.26728e-12, cumulative = -1.26728e-12
time step continuity errors : sum local = 0.000863663, global = -1.26728e-12, cumulative = -1.26728e-12
DICPCG:  Solving for p_rgh, Initial residual = 0.00146342, Final residual = 6.18289e-05, No Iterations 13
DICPCG:  Solving for p_rgh, Initial residual = 0.00146342, Final residual = 6.18289e-05, No Iterations 13
time step continuity errors : sum local = 3.6494e-05, global = -1.00159e-05, cumulative = -1.00159e-05
time step continuity errors : sum local = 3.6494e-05, global = -1.00159e-05, cumulative = -1.00159e-05
DICPCG:  Solving for p_rgh, Initial residual = 5.08541e-05, Final residual = 8.19126e-08, No Iterations 48
DICPCG:  Solving for p_rgh, Initial residual = 5.08541e-05, Final residual = 8.19126e-08, No Iterations 48
time step continuity errors : sum local = 5.88485e-08, global = 1.01685e-08, cumulative = -1.00057e-05
time step continuity errors : sum local = 5.88485e-08, global = 1.01685e-08, cumulative = -1.00057e-05
ExecutionTime = 0.12 s  ClockTime = 0 s

ExecutionTime = 0.12 s  ClockTime = 0 s

Courant Number mean: 0.00124881 max: 0.107249
Courant Number mean: 0.00124881 max: 0.107249
Interface Courant Number mean: 0 max: 0
Interface Courant Number mean: 0 max: 0
deltaT = 0.00143557
deltaT = 0.00143557
Time = 0.00262605

Time = 0.00262605

PIMPLE: iteration 1
PIMPLE: iteration 1
smoothSolver:  Solving for alpha.water, Initial residual = 0.000290383, Final residual = 2.11981e-12, No Iterations 2
smoothSolver:  Solving for alpha.water, Initial residual = 0.000290383, Final residual = 2.11981e-12, No Iterations 2
Phase-1 volume fraction = 0.130194  Min(alpha.water) = 0  Max(alpha.water) = 1
Phase-1 volume fraction = 0.130194  Min(alpha.water) = 0  Max(alpha.water) = 1
MULES: Correcting alpha.water
MULES: Correcting alpha.water
MULES: Correcting alpha.water
MULES: Correcting alpha.water
Phase-1 volume fraction = 0.130194  Min(alpha.water) = -4.39952e-13  Max(alpha.water) = 1
Phase-1 volume fraction = 0.130194  Min(alpha.water) = -4.39952e-13  Max(alpha.water) = 1
DICPCG:  Solving for p_rgh, Initial residual = 0.0031395, Final residual = 0.000102399, No Iterations 2
DICPCG:  Solving for p_rgh, Initial residual = 0.0031395, Final residual = 0.000102399, No Iterations 2
time step continuity errors : sum local = 9.1513e-05, global = 2.99222e-08, cumulative = -9.97576e-06
time step continuity errors : sum local = 9.1513e-05, global = 2.99222e-08, cumulative = -9.97576e-06
DICPCG:  Solving for p_rgh, Initial residual = 0.000211896, Final residual = 9.10795e-06, No Iterations 35
DICPCG:  Solving for p_rgh, Initial residual = 0.000211896, Final residual = 9.10795e-06, No Iterations 35
time step continuity errors : sum local = 8.1438e-06, global = -9.3753e-08, cumulative = -1.00695e-05
time step continuity errors : sum local = 8.1438e-06, global = -9.3753e-08, cumulative = -1.00695e-05
DICPCG:  Solving for p_rgh, Initial residual = 2.98932e-05, Final residual = 8.14188e-08, No Iterations 44
DICPCG:  Solving for p_rgh, Initial residual = 2.98932e-05, Final residual = 8.14188e-08, No Iterations 44
time step continuity errors : sum local = 7.27745e-08, global = 6.30378e-09, cumulative = -1.00632e-05
time step continuity errors : sum local = 7.27745e-08, global = 6.30378e-09, cumulative = -1.00632e-05
ExecutionTime = 0.15 s  ClockTime = 0 s

ExecutionTime = 0.15 s  ClockTime = 0 s

Courant Number mean: 0.00189431 max: 0.0565578
Courant Number mean: 0.00189431 max: 0.0565578
Interface Courant Number mean: 5.13564e-05 max: 0.0565577
deltaT = 0.00169193
Interface Courant Number mean: 5.13564e-05 max: 0.0565577
deltaT = 0.00169193
Time = 0.00431798

Time = 0.00431798

PIMPLE: iteration 1
PIMPLE: iteration 1
smoothSolver:  Solving for alpha.water, Initial residual = 0.00019803, Final residual = 9.30662e-14, No Iterations 2
smoothSolver:  Solving for alpha.water, Initial residual = 0.00019803, Final residual = 9.30662e-14, No Iterations 2
Phase-1 volume fraction = 0.130194  Min(alpha.water) = 0  Max(alpha.water) = 1
Phase-1 volume fraction = 0.130194  Min(alpha.water) = 0  Max(alpha.water) = 1
MULES: Correcting alpha.water
MULES: Correcting alpha.water
MULES: Correcting alpha.water
MULES: Correcting alpha.water
Phase-1 volume fraction = 0.130194  Min(alpha.water) = -9.79197e-19  Max(alpha.water) = 1
Phase-1 volume fraction = 0.130194  Min(alpha.water) = -9.79197e-19  Max(alpha.water) = 1
DICPCG:  Solving for p_rgh, Initial residual = 0.00273124, Final residual = 6.16049e-05, No Iterations 2
DICPCG:  Solving for p_rgh, Initial residual = 0.00273124, Final residual = 6.16049e-05, No Iterations 2
time step continuity errors : sum local = 6.92441e-05, global = 1.49937e-09, cumulative = -1.00617e-05
time step continuity errors : sum local = 6.92441e-05, global = 1.49937e-09, cumulative = -1.00617e-05
DICPCG:  Solving for p_rgh, Initial residual = 6.25071e-05, Final residual = 3.05902e-06, No Iterations 35
DICPCG:  Solving for p_rgh, Initial residual = 6.25071e-05, Final residual = 3.05902e-06, No Iterations 35
time step continuity errors : sum local = 3.43598e-06, global = -1.18949e-07, cumulative = -1.01807e-05
time step continuity errors : sum local = 3.43598e-06, global = -1.18949e-07, cumulative = -1.01807e-05
DICPCG:  Solving for p_rgh, Initial residual = 3.47921e-06, Final residual = 9.40959e-08, No Iterations 19
DICPCG:  Solving for p_rgh, Initial residual = 3.47921e-06, Final residual = 9.40959e-08, No Iterations 19
time step continuity errors : sum local = 1.05759e-07, global = -1.82192e-08, cumulative = -1.01989e-05
time step continuity errors : sum local = 1.05759e-07, global = -1.82192e-08, cumulative = -1.01989e-05
ExecutionTime = 0.17 s  ClockTime = 0 s

ExecutionTime = 0.17 s  ClockTime = 0 s

Courant Number mean: 0.00331888 max: 0.0534697
Courant Number mean: 0.00331888 max: 0.0534697
Interface Courant Number mean: 4.41182e-05 max: 0.0450521
deltaT = 0.00198617
Interface Courant Number mean: 4.41182e-05 max: 0.0450521
deltaT = 0.00198617
Time = 0.00630415

Time = 0.00630415

PIMPLE: iteration 1
PIMPLE: iteration 1
smoothSolver:  Solving for alpha.water, Initial residual = 0.000238462, Final residual = 9.45723e-14, No Iterations 2
smoothSolver:  Solving for alpha.water, Initial residual = 0.000238462, Final residual = 9.45723e-14, No Iterations 2
Phase-1 volume fraction = 0.130194  Min(alpha.water) = 0  Max(alpha.water) = 1
Phase-1 volume fraction = 0.130194  Min(alpha.water) = 0  Max(alpha.water) = 1
MULES: Correcting alpha.water
MULES: Correcting alpha.water
MULES: Correcting alpha.water
MULES: Correcting alpha.water
Phase-1 volume fraction = 0.130194  Min(alpha.water) = -5.57503e-18  Max(alpha.water) = 1
Phase-1 volume fraction = 0.130194  Min(alpha.water) = -5.57503e-18  Max(alpha.water) = 1
DICPCG:  Solving for p_rgh, Initial residual = 0.00350686, Final residual = 0.000151504, No Iterations 1
DICPCG:  Solving for p_rgh, Initial residual = 0.00350686, Final residual = 0.000151504, No Iterations 1
time step continuity errors : sum local = 0.000215472, global = -4.95908e-08, cumulative = -1.02485e-05
time step continuity errors : sum local = 0.000215472, global = -4.95908e-08, cumulative = -1.02485e-05
DICPCG:  Solving for p_rgh, Initial residual = 0.000154439, Final residual = 7.68456e-06, No Iterations 9
DICPCG:  Solving for p_rgh, Initial residual = 0.000154439, Final residual = 7.68456e-06, No Iterations 9
time step continuity errors : sum local = 1.09092e-05, global = -2.47879e-07, cumulative = -1.04964e-05
time step continuity errors : sum local = 1.09092e-05, global = -2.47879e-07, cumulative = -1.04964e-05
DICPCG:  Solving for p_rgh, Initial residual = 8.12392e-06, Final residual = 8.72723e-08, No Iterations 37
DICPCG:  Solving for p_rgh, Initial residual = 8.12392e-06, Final residual = 8.72723e-08, No Iterations 37
time step continuity errors : sum local = 1.23925e-07, global = -6.61173e-09, cumulative = -1.0503e-05
time step continuity errors : sum local = 1.23925e-07, global = -6.61173e-09, cumulative = -1.0503e-05
ExecutionTime = 0.19 s  ClockTime = 0 s

ExecutionTime = 0.19 s  ClockTime = 0 s

Courant Number mean: 0.0055053 max: 0.0627662
Courant Number mean: 0.0055053 max: 0.0627662
Interface Courant Number mean: 0.000169865 max: 0.0498258
deltaT = 0.00242755
Interface Courant Number mean: 0.000169865 max: 0.0498258
deltaT = 0.00242755
Time = 0.0087317

Time = 0.0087317

PIMPLE: iteration 1
PIMPLE: iteration 1
smoothSolver:  Solving for alpha.water, Initial residual = 0.000363751, Final residual = 7.8463e-13, No Iterations 2
smoothSolver:  Solving for alpha.water, Initial residual = 0.000363751, Final residual = 7.8463e-13, No Iterations 2
Phase-1 volume fraction = 0.130194  Min(alpha.water) = 0  Max(alpha.water) = 1
Phase-1 volume fraction = 0.130194  Min(alpha.water) = 0  Max(alpha.water) = 1
MULES: Correcting alpha.water
MULES: Correcting alpha.water
MULES: Correcting alpha.water
MULES: Correcting alpha.water
Phase-1 volume fraction = 0.130194  Min(alpha.water) = -2.41747e-15  Max(alpha.water) = 1
Phase-1 volume fraction = 0.130194  Min(alpha.water) = -2.41747e-15  Max(alpha.water) = 1
DICPCG:  Solving for p_rgh, Initial residual = 0.00551558, Final residual = 0.000169062, No Iterations 1
DICPCG:  Solving for p_rgh, Initial residual = 0.00551558, Final residual = 0.000169062, No Iterations 1
time step continuity errors : sum local = 0.000336393, global = 2.62072e-08, cumulative = -1.04768e-05
time step continuity errors : sum local = 0.000336393, global = 2.62072e-08, cumulative = -1.04768e-05
DICPCG:  Solving for p_rgh, Initial residual = 0.000171904, Final residual = 7.84569e-06, No Iterations 9
time step continuity errors : sum local = 1.55563e-05, global = -4.25586e-08, cumulative = -1.05193e-05
DICPCG:  Solving for p_rgh, Initial residual = 0.000171904, Final residual = 7.84569e-06, No Iterations 9
time step continuity errors : sum local = 1.55563e-05, global = -4.25586e-08, cumulative = -1.05193e-05
DICPCG:  Solving for p_rgh, Initial residual = 8.71621e-06, Final residual = 9.60299e-08, No Iterations 37
time step continuity errors : sum local = 1.90468e-07, global = 7.16289e-10, cumulative = -1.05186e-05
ExecutionTime = 0.21 s  ClockTime = 0 s

DICPCG:  Solving for p_rgh, Initial residual = 8.71621e-06, Final residual = 9.60299e-08, No Iterations 37
time step continuity errors : sum local = 1.90468e-07, global = 7.16289e-10, cumulative = -1.05186e-05
ExecutionTime = 0.21 s  ClockTime = 0 s

Courant Number mean: 0.00920126 max: 0.0824845
Interface Courant Number mean: 0.000329327 max: 0.0761241
deltaT = 0.00294774
Time = 0.0116794

PIMPLE: iteration 1
smoothSolver:  Solving for alpha.water, Initial residual = 0.000565308, Final residual = 5.38215e-12, No Iterations 2
Courant Number mean: 0.00920126 max: 0.0824845
Phase-1 volume fraction = 0.130194  Min(alpha.water) = 0  Max(alpha.water) = 1
Interface Courant Number mean: 0.000329327 max: 0.0761241
deltaT = 0.00294774
Time = 0.0116794

PIMPLE: iteration 1
smoothSolver:  Solving for alpha.water, Initial residual = 0.000565308, Final residual = 5.38215e-12, No Iterations 2
Phase-1 volume fraction = 0.130194  Min(alpha.water) = 0  Max(alpha.water) = 1
MULES: Correcting alpha.water
MULES: Correcting alpha.water
MULES: Correcting alpha.water
Phase-1 volume fraction = 0.130194  Min(alpha.water) = -1.62597e-11  Max(alpha.water) = 1
MULES: Correcting alpha.water
Phase-1 volume fraction = 0.130194  Min(alpha.water) = -1.62597e-11  Max(alpha.water) = 1
DICPCG:  Solving for p_rgh, Initial residual = 0.00871918, Final residual = 0.000196784, No Iterations 1
time step continuity errors : sum local = 0.000548294, global = 4.38665e-08, cumulative = -1.04747e-05
DICPCG:  Solving for p_rgh, Initial residual = 0.00871918, Final residual = 0.000196784, No Iterations 1
time step continuity errors : sum local = 0.000548294, global = 4.38665e-08, cumulative = -1.04747e-05
DICPCG:  Solving for p_rgh, Initial residual = 0.000199357, Final residual = 9.62492e-06, No Iterations 9
time step continuity errors : sum local = 2.66621e-05, global = 1.65155e-07, cumulative = -1.03096e-05
DICPCG:  Solving for p_rgh, Initial residual = 0.000199357, Final residual = 9.62492e-06, No Iterations 9
time step continuity errors : sum local = 2.66621e-05, global = 1.65155e-07, cumulative = -1.03096e-05
DICPCG:  Solving for p_rgh, Initial residual = 1.1969e-05, Final residual = 9.62333e-08, No Iterations 37
time step continuity errors : sum local = 2.66726e-07, global = 6.12523e-09, cumulative = -1.03035e-05
ExecutionTime = 0.23 s  ClockTime = 0 s

Courant Number mean: 0.0148208 max: 0.123701
Interface Courant Number mean: 0.000611219 max: 0.120358
deltaT = 0.00348369
Time = 0.0151631

PIMPLE: iteration 1
DICPCG:  Solving for p_rgh, Initial residual = 1.1969e-05, Final residual = 9.62333e-08, No Iterations 37
smoothSolver:  Solving for alpha.water, Initial residual = 0.000849836, Final residual = 2.93983e-11, No Iterations 2
Phase-1 volume fraction = 0.130194  Min(alpha.water) = 0  Max(alpha.water) = 1
time step continuity errors : sum local = 2.66726e-07, global = 6.12523e-09, cumulative = -1.03035e-05
ExecutionTime = 0.23 s  ClockTime = 0 s

Courant Number mean: 0.0148208 max: 0.123701
MULES: Correcting alpha.water
Interface Courant Number mean: 0.000611219 max: 0.120358
deltaT = 0.00348369
Time = 0.0151631

PIMPLE: iteration 1
smoothSolver:  Solving for alpha.water, Initial residual = 0.000849836, Final residual = 2.93983e-11, No Iterations 2
Phase-1 volume fraction = 0.130194  Min(alpha.water) = 0  Max(alpha.water) = 1
MULES: Correcting alpha.water
Phase-1 volume fraction = 0.130194  Min(alpha.water) = -5.94861e-11  Max(alpha.water) = 1
MULES: Correcting alpha.water
MULES: Correcting alpha.water
Phase-1 volume fraction = 0.130194  Min(alpha.water) = -5.94861e-11  Max(alpha.water) = 1
DICPCG:  Solving for p_rgh, Initial residual = 0.013282, Final residual = 0.000227428, No Iterations 1
time step continuity errors : sum local = 0.00084574, global = 7.60019e-08, cumulative = -1.02275e-05
DICPCG:  Solving for p_rgh, Initial residual = 0.013282, Final residual = 0.000227428, No Iterations 1
DICPCG:  Solving for p_rgh, Initial residual = 0.000231315, Final residual = 1.11594e-05, No Iterations 10
time step continuity errors : sum local = 0.00084574, global = 7.60019e-08, cumulative = -1.02275e-05
time step continuity errors : sum local = 4.11362e-05, global = 5.97964e-07, cumulative = -9.62949e-06
DICPCG:  Solving for p_rgh, Initial residual = 0.000231315, Final residual = 1.11594e-05, No Iterations 10
time step continuity errors : sum local = 4.11362e-05, global = 5.97964e-07, cumulative = -9.62949e-06
DICPCG:  Solving for p_rgh, Initial residual = 1.59273e-05, Final residual = 8.2506e-08, No Iterations 37
time step continuity errors : sum local = 3.04454e-07, global = -2.73963e-08, cumulative = -9.65688e-06
ExecutionTime = 0.25 s  ClockTime = 0 s

Courant Number mean: 0.0226292 max: 0.182513
Interface Courant Number mean: 0.00104234 max: 0.180025
deltaT = 0.00435461
Time = 0.0195177

PIMPLE: iteration 1
DICPCG:  Solving for p_rgh, Initial residual = 1.59273e-05, Final residual = 8.2506e-08, No Iterations 37
smoothSolver:  Solving for alpha.water, Initial residual = 0.00132801, Final residual = 1.8151e-10, No Iterations 2
Phase-1 volume fraction = 0.130194  Min(alpha.water) = 0  Max(alpha.water) = 1
time step continuity errors : sum local = 3.04454e-07, global = -2.73963e-08, cumulative = -9.65688e-06
ExecutionTime = 0.25 s  ClockTime = 0 s

MULES: Correcting alpha.water
Courant Number mean: 0.0226292 max: 0.182513
Interface Courant Number mean: 0.00104234 max: 0.180025
deltaT = 0.00435461
Time = 0.0195177

PIMPLE: iteration 1
smoothSolver:  Solving for alpha.water, Initial residual = 0.00132801, Final residual = 1.8151e-10, No Iterations 2
Phase-1 volume fraction = 0.130194  Min(alpha.water) = 0  Max(alpha.water) = 1
MULES: Correcting alpha.water
Phase-1 volume fraction = 0.130194  Min(alpha.water) = -2.08912e-10  Max(alpha.water) = 1
MULES: Correcting alpha.water
MULES: Correcting alpha.water
Phase-1 volume fraction = 0.130194  Min(alpha.water) = -2.08912e-10  Max(alpha.water) = 1
DICPCG:  Solving for p_rgh, Initial residual = 0.0209383, Final residual = 0.000284866, No Iterations 1
time step continuity errors : sum local = 0.00157085, global = 7.38979e-08, cumulative = -9.58298e-06
DICPCG:  Solving for p_rgh, Initial residual = 0.0209383, Final residual = 0.000284866, No Iterations 1
DICPCG:  Solving for p_rgh, Initial residual = 0.000292349, Final residual = 1.38015e-05, No Iterations 10
time step continuity errors : sum local = 0.00157085, global = 7.38979e-08, cumulative = -9.58298e-06
time step continuity errors : sum local = 7.50546e-05, global = 2.56251e-06, cumulative = -7.02048e-06
DICPCG:  Solving for p_rgh, Initial residual = 0.000292349, Final residual = 1.38015e-05, No Iterations 10
time step continuity errors : sum local = 7.50546e-05, global = 2.56251e-06, cumulative = -7.02048e-06
DICPCG:  Solving for p_rgh, Initial residual = 2.40437e-05, Final residual = 8.95389e-08, No Iterations 41
time step continuity errors : sum local = 4.87693e-07, global = -5.77505e-08, cumulative = -7.07823e-06
ExecutionTime = 0.27 s  ClockTime = 0 s

Courant Number mean: 0.0363516 max: 0.275257
Interface Courant Number mean: 0.00179128 max: 0.275257
deltaT = 0.00508038
Time = 0.0245981

PIMPLE: iteration 1
DICPCG:  Solving for p_rgh, Initial residual = 2.40437e-05, Final residual = 8.95389e-08, No Iterations 41
smoothSolver:  Solving for alpha.water, Initial residual = 0.00192781, Final residual = 7.15328e-10, No Iterations 2
Phase-1 volume fraction = 0.130194  Min(alpha.water) = 0  Max(alpha.water) = 1
time step continuity errors : sum local = 4.87693e-07, global = -5.77505e-08, cumulative = -7.07823e-06
ExecutionTime = 0.27 s  ClockTime = 0 s

MULES: Correcting alpha.water
Courant Number mean: 0.0363516 max: 0.275257
Interface Courant Number mean: 0.00179128 max: 0.275257
deltaT = 0.00508038
Time = 0.0245981

PIMPLE: iteration 1
smoothSolver:  Solving for alpha.water, Initial residual = 0.00192781, Final residual = 7.15328e-10, No Iterations 2
Phase-1 volume fraction = 0.130194  Min(alpha.water) = 0  Max(alpha.water) = 1
MULES: Correcting alpha.water
Phase-1 volume fraction = 0.130194  Min(alpha.water) = -4.24292e-09  Max(alpha.water) = 1
MULES: Correcting alpha.water
MULES: Correcting alpha.water
Phase-1 volume fraction = 0.130194  Min(alpha.water) = -4.24292e-09  Max(alpha.water) = 1
DICPCG:  Solving for p_rgh, Initial residual = 0.0304055, Final residual = 0.000290246, No Iterations 1
time step continuity errors : sum local = 0.00205296, global = 2.07506e-07, cumulative = -6.87072e-06
DICPCG:  Solving for p_rgh, Initial residual = 0.0304055, Final residual = 0.000290246, No Iterations 1
DICPCG:  Solving for p_rgh, Initial residual = 0.00030468, Final residual = 1.40279e-05, No Iterations 11
time step continuity errors : sum local = 0.00205296, global = 2.07506e-07, cumulative = -6.87072e-06
time step continuity errors : sum local = 9.71448e-05, global = 2.71549e-06, cumulative = -4.15523e-06
DICPCG:  Solving for p_rgh, Initial residual = 0.00030468, Final residual = 1.40279e-05, No Iterations 11
time step continuity errors : sum local = 9.71448e-05, global = 2.71549e-06, cumulative = -4.15523e-06
DICPCG:  Solving for p_rgh, Initial residual = 3.16351e-05, Final residual = 9.99704e-08, No Iterations 42
time step continuity errors : sum local = 6.94393e-07, global = -5.87579e-08, cumulative = -4.21399e-06
ExecutionTime = 0.29 s  ClockTime = 0 s

Courant Number mean: 0.0535464 max: 0.394234
Interface Courant Number mean: 0.00274395 max: 0.380092
deltaT = 0.00635047
Time = 0.0309486

PIMPLE: iteration 1
DICPCG:  Solving for p_rgh, Initial residual = 3.16351e-05, Final residual = 9.99704e-08, No Iterations 42
smoothSolver:  Solving for alpha.water, Initial residual = 0.00298789, Final residual = 8.25478e-13, No Iterations 3
Phase-1 volume fraction = 0.130194  Min(alpha.water) = 0  Max(alpha.water) = 1
time step continuity errors : sum local = 6.94393e-07, global = -5.87579e-08, cumulative = -4.21399e-06
ExecutionTime = 0.29 s  ClockTime = 0 s

Courant Number mean: 0.0535464 max: 0.394234
MULES: Correcting alpha.water
Interface Courant Number mean: 0.00274395 max: 0.380092
deltaT = 0.00635047
Time = 0.0309486

PIMPLE: iteration 1
smoothSolver:  Solving for alpha.water, Initial residual = 0.00298789, Final residual = 8.25478e-13, No Iterations 3
Phase-1 volume fraction = 0.130194  Min(alpha.water) = 0  Max(alpha.water) = 1
MULES: Correcting alpha.water
Phase-1 volume fraction = 0.130194  Min(alpha.water) = -1.47418e-08  Max(alpha.water) = 1
MULES: Correcting alpha.water
MULES: Correcting alpha.water
Phase-1 volume fraction = 0.130194  Min(alpha.water) = -1.47418e-08  Max(alpha.water) = 1
DICPCG:  Solving for p_rgh, Initial residual = 0.0464966, Final residual = 0.000325484, No Iterations 1
time step continuity errors : sum local = 0.00330113, global = 7.49951e-07, cumulative = -3.46404e-06
DICPCG:  Solving for p_rgh, Initial residual = 0.0464966, Final residual = 0.000325484, No Iterations 1
DICPCG:  Solving for p_rgh, Initial residual = 0.000357081, Final residual = 1.78302e-05, No Iterations 11
time step continuity errors : sum local = 0.00330113, global = 7.49951e-07, cumulative = -3.46404e-06
time step continuity errors : sum local = 0.000174823, global = 9.19436e-06, cumulative = 5.73033e-06
DICPCG:  Solving for p_rgh, Initial residual = 0.000357081, Final residual = 1.78302e-05, No Iterations 11
time step continuity errors : sum local = 0.000174823, global = 9.19436e-06, cumulative = 5.73033e-06
DICPCG:  Solving for p_rgh, Initial residual = 5.04683e-05, Final residual = 9.13845e-08, No Iterations 45
time step continuity errors : sum local = 9.00787e-07, global = -5.47865e-08, cumulative = 5.67554e-06
ExecutionTime = 0.31 s  ClockTime = 0 s

Courant Number mean: 0.0842607 max: 0.573418
Interface Courant Number mean: 0.00441472 max: 0.562699
deltaT = 0.00635047
Time = 0.0372991

PIMPLE: iteration 1
DICPCG:  Solving for p_rgh, Initial residual = 5.04683e-05, Final residual = 9.13845e-08, No Iterations 45
smoothSolver:  Solving for alpha.water, Initial residual = 0.00368084, Final residual = 2.52177e-12, No Iterations 3
Phase-1 volume fraction = 0.130194  Min(alpha.water) = 0  Max(alpha.water) = 1
time step continuity errors : sum local = 9.00787e-07, global = -5.47865e-08, cumulative = 5.67554e-06
ExecutionTime = 0.31 s  ClockTime = 0 s

Courant Number mean: 0.0842607 max: 0.573418
MULES: Correcting alpha.water
Interface Courant Number mean: 0.00441472 max: 0.562699
deltaT = 0.00635047
Time = 0.0372991

PIMPLE: iteration 1
smoothSolver:  Solving for alpha.water, Initial residual = 0.00368084, Final residual = 2.52177e-12, No Iterations 3
Phase-1 volume fraction = 0.130194  Min(alpha.water) = 0  Max(alpha.water) = 1
MULES: Correcting alpha.water
Phase-1 volume fraction = 0.130194  Min(alpha.water) = -1.47205e-10  Max(alpha.water) = 1
MULES: Correcting alpha.water
MULES: Correcting alpha.water
Phase-1 volume fraction = 0.130194  Min(alpha.water) = -1.47205e-10  Max(alpha.water) = 1
DICPCG:  Solving for p_rgh, Initial residual = 0.0587006, Final residual = 0.0004006, No Iterations 1
time step continuity errors : sum local = 0.00369386, global = 7.66909e-07, cumulative = 6.44245e-06
DICPCG:  Solving for p_rgh, Initial residual = 0.0587006, Final residual = 0.0004006, No Iterations 1
DICPCG:  Solving for p_rgh, Initial residual = 0.000451896, Final residual = 2.18734e-05, No Iterations 11
time step continuity errors : sum local = 0.00369386, global = 7.66909e-07, cumulative = 6.44245e-06
time step continuity errors : sum local = 0.000192718, global = 1.67947e-05, cumulative = 2.32372e-05
DICPCG:  Solving for p_rgh, Initial residual = 0.000451896, Final residual = 2.18734e-05, No Iterations 11
time step continuity errors : sum local = 0.000192718, global = 1.67947e-05, cumulative = 2.32372e-05
DICPCG:  Solving for p_rgh, Initial residual = 6.50623e-05, Final residual = 9.39946e-08, No Iterations 42
time step continuity errors : sum local = 8.35182e-07, global = -5.7404e-08, cumulative = 2.31798e-05
ExecutionTime = 0.33 s  ClockTime = 0 s

Courant Number mean: 0.100761 max: 0.67514
Interface Courant Number mean: 0.00589176 max: 0.67514
deltaT = 0.00635047
Time = 0.0436495

PIMPLE: iteration 1
DICPCG:  Solving for p_rgh, Initial residual = 6.50623e-05, Final residual = 9.39946e-08, No Iterations 42
smoothSolver:  Solving for alpha.water, Initial residual = 0.00431179, Final residual = 9.44748e-09, No Iterations 3
Phase-1 volume fraction = 0.130194  Min(alpha.water) = 0  Max(alpha.water) = 1
time step continuity errors : sum local = 8.35182e-07, global = -5.7404e-08, cumulative = 2.31798e-05
ExecutionTime = 0.33 s  ClockTime = 0 s

MULES: Correcting alpha.water
Courant Number mean: 0.100761 max: 0.67514
Interface Courant Number mean: 0.00589176 max: 0.67514
deltaT = 0.00635047
Time = 0.0436495

PIMPLE: iteration 1
MULES: Correcting alpha.water
smoothSolver:  Solving for alpha.water, Initial residual = 0.00431179, Final residual = 9.44748e-09, No Iterations 3
Phase-1 volume fraction = 0.130194  Min(alpha.water) = 0  Max(alpha.water) = 1
Phase-1 volume fraction = 0.130194  Min(alpha.water) = -8.14848e-11  Max(alpha.water) = 1
MULES: Correcting alpha.water
MULES: Correcting alpha.water
Phase-1 volume fraction = 0.130194  Min(alpha.water) = -8.14848e-11  Max(alpha.water) = 1
DICPCG:  Solving for p_rgh, Initial residual = 0.0682148, Final residual = 0.000501343, No Iterations 1
time step continuity errors : sum local = 0.00413178, global = 4.9849e-07, cumulative = 2.36783e-05
DICPCG:  Solving for p_rgh, Initial residual = 0.000581236, Final residual = 2.82923e-05, No Iterations 10
DICPCG:  Solving for p_rgh, Initial residual = 0.0682148, Final residual = 0.000501343, No Iterations 1
time step continuity errors : sum local = 0.000220669, global = 2.23752e-05, cumulative = 4.60534e-05
time step continuity errors : sum local = 0.00413178, global = 4.9849e-07, cumulative = 2.36783e-05
DICPCG:  Solving for p_rgh, Initial residual = 0.000581236, Final residual = 2.82923e-05, No Iterations 10
time step continuity errors : sum local = 0.000220669, global = 2.23752e-05, cumulative = 4.60534e-05
DICPCG:  Solving for p_rgh, Initial residual = 8.78322e-05, Final residual = 9.49249e-08, No Iterations 46
time step continuity errors : sum local = 7.49217e-07, global = -2.01582e-08, cumulative = 4.60333e-05
ExecutionTime = 0.35 s  ClockTime = 0 s

Courant Number mean: 0.116957 max: 0.767062
Interface Courant Number mean: 0.00869566 max: 0.740895
deltaT = 0.00635047
Time = 0.05

PIMPLE: iteration 1
smoothSolver:  Solving for alpha.water, Initial residual = 0.00491406, Final residual = 7.48517e-11, No Iterations 4
Phase-1 volume fraction = 0.130194  Min(alpha.water) = 0  Max(alpha.water) = 1
DICPCG:  Solving for p_rgh, Initial residual = 8.78322e-05, Final residual = 9.49249e-08, No Iterations 46
time step continuity errors : sum local = 7.49217e-07, global = -2.01582e-08, cumulative = 4.60333e-05
ExecutionTime = 0.35 s  ClockTime = 0 s

MULES: Correcting alpha.water
Courant Number mean: 0.116957 max: 0.767062
Interface Courant Number mean: 0.00869566 max: 0.740895
deltaT = 0.00635047
Time = 0.05

PIMPLE: iteration 1
MULES: Correcting alpha.water
smoothSolver:  Solving for alpha.water, Initial residual = 0.00491406, Final residual = 7.48517e-11, No Iterations 4
Phase-1 volume fraction = 0.130194  Min(alpha.water) = 0  Max(alpha.water) = 1
Phase-1 volume fraction = 0.130194  Min(alpha.water) = -2.2765e-10  Max(alpha.water) = 1
MULES: Correcting alpha.water
MULES: Correcting alpha.water
Phase-1 volume fraction = 0.130194  Min(alpha.water) = -2.2765e-10  Max(alpha.water) = 1
DICPCG:  Solving for p_rgh, Initial residual = 0.0718002, Final residual = 0.000642817, No Iterations 1
time step continuity errors : sum local = 0.00467853, global = 4.22917e-07, cumulative = 4.64562e-05
DICPCG:  Solving for p_rgh, Initial residual = 0.000740954, Final residual = 3.39327e-05, No Iterations 10
DICPCG:  Solving for p_rgh, Initial residual = 0.0718002, Final residual = 0.000642817, No Iterations 1
time step continuity errors : sum local = 0.000232851, global = 3.62417e-05, cumulative = 8.26979e-05
time step continuity errors : sum local = 0.00467853, global = 4.22917e-07, cumulative = 4.64562e-05
DICPCG:  Solving for p_rgh, Initial residual = 0.000740954, Final residual = 3.39327e-05, No Iterations 10
time step continuity errors : sum local = 0.000232851, global = 3.62417e-05, cumulative = 8.26979e-05
DICPCG:  Solving for p_rgh, Initial residual = 0.000116576, Final residual = 7.62912e-08, No Iterations 46
time step continuity errors : sum local = 5.32263e-07, global = 5.60813e-08, cumulative = 8.2754e-05
DICPCG:  Solving for p_rgh, Initial residual = 0.000116576, Final residual = 7.62912e-08, No Iterations 46
time step continuity errors : sum local = 5.32263e-07, global = 5.60813e-08, cumulative = 8.2754e-05
ExecutionTime = 0.39 s  ClockTime = 0 s

Courant Number mean: 0.132693 max: 0.860145
Interface Courant Number mean: 0.0105297 max: 0.822277
deltaT = 0.00714286
Time = 0.0571429

PIMPLE: iteration 1
smoothSolver:  Solving for alpha.water, Initial residual = 0.00618067, Final residual = 1.48774e-09, No Iterations 4
Phase-1 volume fraction = 0.130194  Min(alpha.water) = 0  Max(alpha.water) = 1
ExecutionTime = 0.4 s  ClockTime = 0 s

MULES: Correcting alpha.water
Courant Number mean: 0.132693 max: 0.860145
Interface Courant Number mean: 0.0105297 max: 0.822277
deltaT = 0.00714286
Time = 0.0571429

PIMPLE: iteration 1
smoothSolver:  Solving for alpha.water, Initial residual = 0.00618067, Final residual = 1.48774e-09, No Iterations 4
MULES: Correcting alpha.water
Phase-1 volume fraction = 0.130194  Min(alpha.water) = 0  Max(alpha.water) = 1
Phase-1 volume fraction = 0.130194  Min(alpha.water) = -7.80464e-10  Max(alpha.water) = 1
MULES: Correcting alpha.water
MULES: Correcting alpha.water
Phase-1 volume fraction = 0.130194  Min(alpha.water) = -7.80464e-10  Max(alpha.water) = 1
DICPCG:  Solving for p_rgh, Initial residual = 0.0724677, Final residual = 0.000998257, No Iterations 1
time step continuity errors : sum local = 0.00794581, global = 4.88505e-07, cumulative = 8.32425e-05
DICPCG:  Solving for p_rgh, Initial residual = 0.0724677, Final residual = 0.000998257, No Iterations 1
DICPCG:  Solving for p_rgh, Initial residual = 0.00116382, Final residual = 5.10709e-05, No Iterations 11
time step continuity errors : sum local = 0.00794581, global = 4.88505e-07, cumulative = 8.32425e-05
time step continuity errors : sum local = 0.000382269, global = 7.02072e-05, cumulative = 0.00015345
DICPCG:  Solving for p_rgh, Initial residual = 0.00116382, Final residual = 5.10709e-05, No Iterations 11
time step continuity errors : sum local = 0.000382269, global = 7.02072e-05, cumulative = 0.00015345
DICPCG:  Solving for p_rgh, Initial residual = 0.000197979, Final residual = 8.87516e-08, No Iterations 50
time step continuity errors : sum local = 6.80802e-07, global = -3.2755e-08, cumulative = 0.000153417
ExecutionTime = 0.42 s  ClockTime = 0 s

Courant Number mean: 0.16925 max: 1.06055
Interface Courant Number mean: 0.0145945 max: 1.02526
deltaT = 0.00714286
Time = 0.0642857

PIMPLE: iteration 1
DICPCG:  Solving for p_rgh, Initial residual = 0.000197979, Final residual = 8.87516e-08, No Iterations 50
smoothSolver:  Solving for alpha.water, Initial residual = 0.00697899, Final residual = 6.41087e-09, No Iterations 4
Phase-1 volume fraction = 0.130194  Min(alpha.water) = 0  Max(alpha.water) = 1
time step continuity errors : sum local = 6.80802e-07, global = -3.2755e-08, cumulative = 0.000153417
ExecutionTime = 0.42 s  ClockTime = 0 s

MULES: Correcting alpha.water
Courant Number mean: 0.16925 max: 1.06055
Interface Courant Number mean: 0.0145945 max: 1.02526
deltaT = 0.00714286
Time = 0.0642857

PIMPLE: iteration 1
smoothSolver:  Solving for alpha.water, Initial residual = 0.00697899, Final residual = 6.41087e-09, No Iterations 4
Phase-1 volume fraction = 0.130194  Min(alpha.water) = 0  Max(alpha.water) = 1
MULES: Correcting alpha.water
Phase-1 volume fraction = 0.130194  Min(alpha.water) = -2.15722e-09  Max(alpha.water) = 1
MULES: Correcting alpha.water
MULES: Correcting alpha.water
Phase-1 volume fraction = 0.130194  Min(alpha.water) = -2.15722e-09  Max(alpha.water) = 1
DICPCG:  Solving for p_rgh, Initial residual = 0.059654, Final residual = 0.00152268, No Iterations 1
time step continuity errors : sum local = 0.0109145, global = -3.33414e-07, cumulative = 0.000153084
DICPCG:  Solving for p_rgh, Initial residual = 0.059654, Final residual = 0.00152268, No Iterations 1
DICPCG:  Solving for p_rgh, Initial residual = 0.00174404, Final residual = 7.32646e-05, No Iterations 11
time step continuity errors : sum local = 0.0109145, global = -3.33414e-07, cumulative = 0.000153084
time step continuity errors : sum local = 0.000499856, global = 0.00011106, cumulative = 0.000264144
DICPCG:  Solving for p_rgh, Initial residual = 0.00174404, Final residual = 7.32646e-05, No Iterations 11
time step continuity errors : sum local = 0.000499856, global = 0.00011106, cumulative = 0.000264144
DICPCG:  Solving for p_rgh, Initial residual = 0.00026971, Final residual = 7.33331e-08, No Iterations 52
time step continuity errors : sum local = 5.15858e-07, global = -1.07107e-08, cumulative = 0.000264133
ExecutionTime = 0.44 s  ClockTime = 0 s

Courant Number mean: 0.188718 max: 1.22328
Interface Courant Number mean: 0.0173364 max: 1.11447
deltaT = 0.00595238
Time = 0.0702381

PIMPLE: iteration 1
smoothSolver:  Solving for alpha.water, Initial residual = 0.00642271, Final residual = 4.91143e-09, No Iterations 4
Phase-1 volume fraction = 0.130194  Min(alpha.water) = -8.95886e-21  Max(alpha.water) = 1
DICPCG:  Solving for p_rgh, Initial residual = 0.00026971, Final residual = 7.33331e-08, No Iterations 52
time step continuity errors : sum local = 5.15858e-07, global = -1.07107e-08, cumulative = 0.000264133
ExecutionTime = 0.44 s  ClockTime = 0 s

MULES: Correcting alpha.water
Courant Number mean: 0.188718 max: 1.22328
Interface Courant Number mean: 0.0173364 max: 1.11447
deltaT = 0.00595238
Time = 0.0702381

PIMPLE: iteration 1
MULES: Correcting alpha.water
smoothSolver:  Solving for alpha.water, Initial residual = 0.00642271, Final residual = 4.91143e-09, No Iterations 4
Phase-1 volume fraction = 0.130194  Min(alpha.water) = -8.95886e-21  Max(alpha.water) = 1
Phase-1 volume fraction = 0.130194  Min(alpha.water) = -2.34179e-08  Max(alpha.water) = 1
MULES: Correcting alpha.water
MULES: Correcting alpha.water
Phase-1 volume fraction = 0.130194  Min(alpha.water) = -2.34179e-08  Max(alpha.water) = 1
DICPCG:  Solving for p_rgh, Initial residual = 0.0368375, Final residual = 0.00151193, No Iterations 1
time step continuity errors : sum local = 0.00743459, global = -1.43647e-06, cumulative = 0.000262697
DICPCG:  Solving for p_rgh, Initial residual = 0.00171739, Final residual = 8.56975e-05, No Iterations 10
DICPCG:  Solving for p_rgh, Initial residual = 0.0368375, Final residual = 0.00151193, No Iterations 1
time step continuity errors : sum local = 0.00743459, global = -1.43647e-06, cumulative = 0.000262697
time step continuity errors : sum local = 0.000412123, global = 8.36049e-05, cumulative = 0.000346302
DICPCG:  Solving for p_rgh, Initial residual = 0.00171739, Final residual = 8.56975e-05, No Iterations 10
time step continuity errors : sum local = 0.000412123, global = 8.36049e-05, cumulative = 0.000346302
DICPCG:  Solving for p_rgh, Initial residual = 0.000255391, Final residual = 8.76705e-08, No Iterations 51
time step continuity errors : sum local = 4.33262e-07, global = -1.99825e-08, cumulative = 0.000346282
ExecutionTime = 0.46 s  ClockTime = 0 s

Courant Number mean: 0.170197 max: 1.24333
Interface Courant Number mean: 0.0154453 max: 0.96254
deltaT = 0.00496032
Time = 0.0751984

PIMPLE: iteration 1
smoothSolver:  Solving for alpha.water, Initial residual = 0.00572702, Final residual = 2.2695e-09, No Iterations 4
Phase-1 volume fraction = 0.130194  Min(alpha.water) = -1.365e-13  Max(alpha.water) = 1
DICPCG:  Solving for p_rgh, Initial residual = 0.000255391, Final residual = 8.76705e-08, No Iterations 51
time step continuity errors : sum local = 4.33262e-07, global = -1.99825e-08, cumulative = 0.000346282
ExecutionTime = 0.46 s  ClockTime = 0 s

MULES: Correcting alpha.water
Courant Number mean: 0.170197 max: 1.24333
Interface Courant Number mean: 0.0154453 max: 0.96254
deltaT = 0.00496032
Time = 0.0751984

PIMPLE: iteration 1
MULES: Correcting alpha.water
smoothSolver:  Solving for alpha.water, Initial residual = 0.00572702, Final residual = 2.2695e-09, No Iterations 4
Phase-1 volume fraction = 0.130194  Min(alpha.water) = -1.365e-13  Max(alpha.water) = 1
Phase-1 volume fraction = 0.130194  Min(alpha.water) = -1.30544e-08  Max(alpha.water) = 1
MULES: Correcting alpha.water
MULES: Correcting alpha.water
Phase-1 volume fraction = 0.130194  Min(alpha.water) = -1.30544e-08  Max(alpha.water) = 1
DICPCG:  Solving for p_rgh, Initial residual = 0.0537965, Final residual = 0.00079032, No Iterations 1
time step continuity errors : sum local = 0.00323822, global = -1.29108e-06, cumulative = 0.000344991
DICPCG:  Solving for p_rgh, Initial residual = 0.0537965, Final residual = 0.00079032, No Iterations 1
DICPCG:  Solving for p_rgh, Initial residual = 0.000910009, Final residual = 4.40946e-05, No Iterations 11
time step continuity errors : sum local = 0.00323822, global = -1.29108e-06, cumulative = 0.000344991
time step continuity errors : sum local = 0.000172111, global = 3.62012e-05, cumulative = 0.000381192
DICPCG:  Solving for p_rgh, Initial residual = 0.000910009, Final residual = 4.40946e-05, No Iterations 11
time step continuity errors : sum local = 0.000172111, global = 3.62012e-05, cumulative = 0.000381192
DICPCG:  Solving for p_rgh, Initial residual = 0.000137605, Final residual = 8.5283e-08, No Iterations 49
time step continuity errors : sum local = 3.40041e-07, global = -2.74749e-08, cumulative = 0.000381164
ExecutionTime = 0.48 s  ClockTime = 0 s

Courant Number mean: 0.150324 max: 1.22246
Interface Courant Number mean: 0.0138015 max: 0.862968
deltaT = 0.0041336
Time = 0.079332

PIMPLE: iteration 1
smoothSolver:  Solving for alpha.water, Initial residual = 0.00506706, Final residual = 7.7608e-10, No Iterations 4
DICPCG:  Solving for p_rgh, Initial residual = 0.000137605, Final residual = 8.5283e-08, No Iterations 49
Phase-1 volume fraction = 0.130194  Min(alpha.water) = -2.50397e-14  Max(alpha.water) = 1
time step continuity errors : sum local = 3.40041e-07, global = -2.74749e-08, cumulative = 0.000381164
ExecutionTime = 0.49 s  ClockTime = 0 s

MULES: Correcting alpha.water
Courant Number mean: 0.150324 max: 1.22246
Interface Courant Number mean: 0.0138015 max: 0.862968
deltaT = 0.0041336
Time = 0.079332

PIMPLE: iteration 1
MULES: Correcting alpha.water
smoothSolver:  Solving for alpha.water, Initial residual = 0.00506706, Final residual = 7.7608e-10, No Iterations 4
Phase-1 volume fraction = 0.130194  Min(alpha.water) = -2.50397e-14  Max(alpha.water) = 1
Phase-1 volume fraction = 0.130194  Min(alpha.water) = -8.14285e-10  Max(alpha.water) = 1
MULES: Correcting alpha.water
MULES: Correcting alpha.water
DICPCG:  Solving for p_rgh, Initial residual = 0.0563785, Final residual = 0.000775263, No Iterations 1
Phase-1 volume fraction = 0.130194  Min(alpha.water) = -8.14285e-10  Max(alpha.water) = 1
time step continuity errors : sum local = 0.0022678, global = -4.87024e-07, cumulative = 0.000380677
DICPCG:  Solving for p_rgh, Initial residual = 0.000882938, Final residual = 4.00451e-05, No Iterations 11
time step continuity errors : sum local = 0.000111117, global = 2.05877e-05, cumulative = 0.000401265
DICPCG:  Solving for p_rgh, Initial residual = 0.0563785, Final residual = 0.000775263, No Iterations 1
time step continuity errors : sum local = 0.0022678, global = -4.87024e-07, cumulative = 0.000380677
DICPCG:  Solving for p_rgh, Initial residual = 0.000882938, Final residual = 4.00451e-05, No Iterations 11
DICPCG:  Solving for p_rgh, Initial residual = 0.000124325, Final residual = 7.1308e-08, No Iterations 49
time step continuity errors : sum local = 0.000111117, global = 2.05877e-05, cumulative = 0.000401265
time step continuity errors : sum local = 2.01598e-07, global = -8.56467e-09, cumulative = 0.000401256
ExecutionTime = 0.5 s  ClockTime = 0 s

Courant Number mean: 0.131156 max: 1.17565
Interface Courant Number mean: 0.0120647 max: 0.753334
deltaT = 0.00344466
Time = 0.0827767

PIMPLE: iteration 1
smoothSolver:  Solving for alpha.water, Initial residual = 0.00444459, Final residual = 2.5437e-10, No Iterations 4
Phase-1 volume fraction = 0.130194  Min(alpha.water) = -1.42952e-14  Max(alpha.water) = 1
MULES: Correcting alpha.water
MULES: Correcting alpha.water
DICPCG:  Solving for p_rgh, Initial residual = 0.000124325, Final residual = 7.1308e-08, No Iterations 49
Phase-1 volume fraction = 0.130194  Min(alpha.water) = -1.80032e-09  Max(alpha.water) = 1
time step continuity errors : sum local = 2.01598e-07, global = -8.56467e-09, cumulative = 0.000401256
ExecutionTime = 0.51 s  ClockTime = 0 s

Courant Number mean: 0.131156 max: 1.17565
Interface Courant Number mean: 0.0120647 max: 0.753334
deltaT = 0.00344466
Time = 0.0827767

PIMPLE: iteration 1
smoothSolver:  Solving for alpha.water, Initial residual = 0.00444459, Final residual = 2.5437e-10, No Iterations 4
Phase-1 volume fraction = 0.130194  Min(alpha.water) = -1.42952e-14  Max(alpha.water) = 1
DICPCG:  Solving for p_rgh, Initial residual = 0.0415074, Final residual = 0.000903674, No Iterations 1
MULES: Correcting alpha.water
time step continuity errors : sum local = 0.00172975, global = -2.20145e-07, cumulative = 0.000401036
MULES: Correcting alpha.water
DICPCG:  Solving for p_rgh, Initial residual = 0.00100847, Final residual = 4.19388e-05, No Iterations 11
Phase-1 volume fraction = 0.130194  Min(alpha.water) = -1.80032e-09  Max(alpha.water) = 1
time step continuity errors : sum local = 7.73137e-05, global = 1.51352e-05, cumulative = 0.000416171
DICPCG:  Solving for p_rgh, Initial residual = 0.0415074, Final residual = 0.000903674, No Iterations 1
DICPCG:  Solving for p_rgh, Initial residual = 0.000125743, Final residual = 7.2119e-08, No Iterations 49
time step continuity errors : sum local = 0.00172975, global = -2.20145e-07, cumulative = 0.000401036
time step continuity errors : sum local = 1.35207e-07, global = -3.03311e-09, cumulative = 0.000416168
ExecutionTime = 0.52 s  ClockTime = 0 s

Courant Number mean: 0.113497 max: 1.12944
Interface Courant Number mean: 0.0102721 max: 0.644799
deltaT = 0.00287055
Time = 0.0856472

PIMPLE: iteration 1
DICPCG:  Solving for p_rgh, Initial residual = 0.00100847, Final residual = 4.19388e-05, No Iterations 11
smoothSolver:  Solving for alpha.water, Initial residual = 0.00385925, Final residual = 8.616e-09, No Iterations 3
Phase-1 volume fraction = 0.130194  Min(alpha.water) = -1.05339e-14  Max(alpha.water) = 1
time step continuity errors : sum local = 7.73137e-05, global = 1.51352e-05, cumulative = 0.000416171
MULES: Correcting alpha.water
MULES: Correcting alpha.water
Phase-1 volume fraction = 0.130194  Min(alpha.water) = -3.53345e-09  Max(alpha.water) = 1
DICPCG:  Solving for p_rgh, Initial residual = 0.000125743, Final residual = 7.2119e-08, No Iterations 49
time step continuity errors : sum local = 1.35207e-07, global = -3.03311e-09, cumulative = 0.000416168
ExecutionTime = 0.53 s  ClockTime = 0 s

Courant Number mean: 0.113497 max: 1.12944
Interface Courant Number mean: 0.0102721 max: 0.644799
deltaT = 0.00287055
Time = 0.0856472

PIMPLE: iteration 1
smoothSolver:  Solving for alpha.water, Initial residual = 0.00385925, Final residual = 8.616e-09, No Iterations 3
Phase-1 volume fraction = 0.130194  Min(alpha.water) = -1.05339e-14  Max(alpha.water) = 1
DICPCG:  Solving for p_rgh, Initial residual = 0.0317941, Final residual = 0.00102245, No Iterations 1
time step continuity errors : sum local = 0.00132498, global = -1.42817e-07, cumulative = 0.000416026
MULES: Correcting alpha.water
MULES: Correcting alpha.water
DICPCG:  Solving for p_rgh, Initial residual = 0.00112462, Final residual = 4.7889e-05, No Iterations 11
Phase-1 volume fraction = 0.130194  Min(alpha.water) = -3.53345e-09  Max(alpha.water) = 1
time step continuity errors : sum local = 6.05457e-05, global = 1.21922e-05, cumulative = 0.000428218
DICPCG:  Solving for p_rgh, Initial residual = 0.0317941, Final residual = 0.00102245, No Iterations 1
DICPCG:  Solving for p_rgh, Initial residual = 0.000123509, Final residual = 9.99135e-08, No Iterations 48
time step continuity errors : sum local = 0.00132498, global = -1.42817e-07, cumulative = 0.000416026
time step continuity errors : sum local = 1.281e-07, global = -5.60823e-09, cumulative = 0.000428212
ExecutionTime = 0.55 s  ClockTime = 0 s

Courant Number mean: 0.0974895 max: 1.04901
Interface Courant Number mean: 0.00853595 max: 0.640807
deltaT = 0.00287055
Time = 0.0885178

PIMPLE: iteration 1
DICPCG:  Solving for p_rgh, Initial residual = 0.00112462, Final residual = 4.7889e-05, No Iterations 11
smoothSolver:  Solving for alpha.water, Initial residual = 0.00396876, Final residual = 8.80139e-09, No Iterations 3
Phase-1 volume fraction = 0.130194  Min(alpha.water) = -7.2018e-15  Max(alpha.water) = 1
time step continuity errors : sum local = 6.05457e-05, global = 1.21922e-05, cumulative = 0.000428218
MULES: Correcting alpha.water
MULES: Correcting alpha.water
Phase-1 volume fraction = 0.130194  Min(alpha.water) = -3.02774e-10  Max(alpha.water) = 1
DICPCG:  Solving for p_rgh, Initial residual = 0.000123509, Final residual = 9.99135e-08, No Iterations 48
time step continuity errors : sum local = 1.281e-07, global = -5.60823e-09, cumulative = 0.000428212
ExecutionTime = 0.56 s  ClockTime = 0 s

Courant Number mean: 0.0974895 max: 1.04901
Interface Courant Number mean: 0.00853595 max: 0.640807
deltaT = 0.00287055
Time = 0.0885178

PIMPLE: iteration 1
DICPCG:  Solving for p_rgh, Initial residual = 0.0305252, Final residual = 0.00090892, No Iterations 1
smoothSolver:  Solving for alpha.water, Initial residual = 0.00396876, Final residual = 8.80139e-09, No Iterations 3
Phase-1 volume fraction = 0.130194  Min(alpha.water) = -7.2018e-15  Max(alpha.water) = 1
time step continuity errors : sum local = 0.00119443, global = -1.31051e-07, cumulative = 0.000428081
MULES: Correcting alpha.water
MULES: Correcting alpha.water
DICPCG:  Solving for p_rgh, Initial residual = 0.00101893, Final residual = 4.95738e-05, No Iterations 11
Phase-1 volume fraction = 0.130194  Min(alpha.water) = -3.02774e-10  Max(alpha.water) = 1
time step continuity errors : sum local = 6.35713e-05, global = 1.14835e-05, cumulative = 0.000439565
DICPCG:  Solving for p_rgh, Initial residual = 0.0305252, Final residual = 0.00090892, No Iterations 1
DICPCG:  Solving for p_rgh, Initial residual = 0.000118974, Final residual = 9.78867e-08, No Iterations 48
time step continuity errors : sum local = 0.00119443, global = -1.31051e-07, cumulative = 0.000428081
time step continuity errors : sum local = 1.2716e-07, global = -5.49634e-09, cumulative = 0.000439559
ExecutionTime = 0.57 s  ClockTime = 0 s

Courant Number mean: 0.100277 max: 1.1581
Interface Courant Number mean: 0.00832516 max: 0.657472
deltaT = 0.00229644
Time = 0.0908142

PIMPLE: iteration 1
DICPCG:  Solving for p_rgh, Initial residual = 0.00101893, Final residual = 4.95738e-05, No Iterations 11
smoothSolver:  Solving for alpha.water, Initial residual = 0.00326193, Final residual = 2.67964e-09, No Iterations 3
Phase-1 volume fraction = 0.130194  Min(alpha.water) = -5.27214e-13  Max(alpha.water) = 1
time step continuity errors : sum local = 6.35713e-05, global = 1.14835e-05, cumulative = 0.000439565
MULES: Correcting alpha.water
MULES: Correcting alpha.water
Phase-1 volume fraction = 0.130194  Min(alpha.water) = -7.49469e-10  Max(alpha.water) = 1
DICPCG:  Solving for p_rgh, Initial residual = 0.000118974, Final residual = 9.78867e-08, No Iterations 48
time step continuity errors : sum local = 1.2716e-07, global = -5.49634e-09, cumulative = 0.000439559
ExecutionTime = 0.58 s  ClockTime = 0 s

Courant Number mean: 0.100277 max: 1.1581
Interface Courant Number mean: 0.00832516 max: 0.657472
deltaT = 0.00229644
Time = 0.0908142

PIMPLE: iteration 1
DICPCG:  Solving for p_rgh, Initial residual = 0.0286944, Final residual = 0.000716103, No Iterations 1
smoothSolver:  Solving for alpha.water, Initial residual = 0.00326193, Final residual = 2.67964e-09, No Iterations 3
Phase-1 volume fraction = 0.130194  Min(alpha.water) = -5.27214e-13  Max(alpha.water) = 1
time step continuity errors : sum local = 0.000650606, global = -1.13834e-07, cumulative = 0.000439445
MULES: Correcting alpha.water
DICPCG:  Solving for p_rgh, Initial residual = 0.000786939, Final residual = 3.81787e-05, No Iterations 11
MULES: Correcting alpha.water
Phase-1 volume fraction = 0.130194  Min(alpha.water) = -7.49469e-10  Max(alpha.water) = 1
time step continuity errors : sum local = 3.3942e-05, global = 5.739e-06, cumulative = 0.000445184
DICPCG:  Solving for p_rgh, Initial residual = 0.0286944, Final residual = 0.000716103, No Iterations 1
DICPCG:  Solving for p_rgh, Initial residual = 8.30227e-05, Final residual = 8.27822e-08, No Iterations 47
time step continuity errors : sum local = 0.000650606, global = -1.13834e-07, cumulative = 0.000439445
time step continuity errors : sum local = 7.43689e-08, global = -4.8732e-09, cumulative = 0.000445179
ExecutionTime = 0.58 s  ClockTime = 0 s

Courant Number mean: 0.0818465 max: 0.988717
Interface Courant Number mean: 0.00686015 max: 0.539353
deltaT = 0.00229644
Time = 0.0931107

PIMPLE: iteration 1
DICPCG:  Solving for p_rgh, Initial residual = 0.000786939, Final residual = 3.81787e-05, No Iterations 11
smoothSolver:  Solving for alpha.water, Initial residual = 0.00336527, Final residual = 2.69163e-09, No Iterations 3
Phase-1 volume fraction = 0.130194  Min(alpha.water) = -2.47324e-13  Max(alpha.water) = 1
time step continuity errors : sum local = 3.3942e-05, global = 5.739e-06, cumulative = 0.000445184
MULES: Correcting alpha.water
MULES: Correcting alpha.water
Phase-1 volume fraction = 0.130194  Min(alpha.water) = -2.28647e-08  Max(alpha.water) = 1
DICPCG:  Solving for p_rgh, Initial residual = 8.30227e-05, Final residual = 8.27822e-08, No Iterations 47
time step continuity errors : sum local = 7.43689e-08, global = -4.8732e-09, cumulative = 0.000445179
ExecutionTime = 0.6 s  ClockTime = 0 s

Courant Number mean: 0.0818465 max: 0.988717
Interface Courant Number mean: 0.00686015 max: 0.539353
deltaT = 0.00229644
Time = 0.0931107

PIMPLE: iteration 1
DICPCG:  Solving for p_rgh, Initial residual = 0.0350866, Final residual = 0.000499029, No Iterations 1
smoothSolver:  Solving for alpha.water, Initial residual = 0.00336527, Final residual = 2.69163e-09, No Iterations 3
Phase-1 volume fraction = 0.130194  Min(alpha.water) = -2.47324e-13  Max(alpha.water) = 1
time step continuity errors : sum local = 0.000498885, global = -6.11083e-08, cumulative = 0.000445118
MULES: Correcting alpha.water
DICPCG:  Solving for p_rgh, Initial residual = 0.000558277, Final residual = 2.3614e-05, No Iterations 12
MULES: Correcting alpha.water
time step continuity errors : sum local = 2.28611e-05, global = 3.72986e-06, cumulative = 0.000448848
Phase-1 volume fraction = 0.130194  Min(alpha.water) = -2.28647e-08  Max(alpha.water) = 1
DICPCG:  Solving for p_rgh, Initial residual = 0.0350866, Final residual = 0.000499029, No Iterations 1
DICPCG:  Solving for p_rgh, Initial residual = 6.06942e-05, Final residual = 9.24372e-08, No Iterations 46
time step continuity errors : sum local = 0.000498885, global = -6.11083e-08, cumulative = 0.000445118
time step continuity errors : sum local = 9.03058e-08, global = -6.94455e-09, cumulative = 0.000448841
ExecutionTime = 0.6 s  ClockTime = 0 s

Courant Number mean: 0.0835127 max: 1.04925
Interface Courant Number mean: 0.00742619 max: 0.755625
deltaT = 0.00229644
Time = 0.0954071

PIMPLE: iteration 1
smoothSolver:  Solving for alpha.water, Initial residual = 0.00345611, Final residual = 2.99818e-09, No Iterations 3
DICPCG:  Solving for p_rgh, Initial residual = 0.000558277, Final residual = 2.3614e-05, No Iterations 12
Phase-1 volume fraction = 0.130194  Min(alpha.water) = -2.85588e-14  Max(alpha.water) = 1
time step continuity errors : sum local = 2.28611e-05, global = 3.72986e-06, cumulative = 0.000448848
MULES: Correcting alpha.water
MULES: Correcting alpha.water
Phase-1 volume fraction = 0.130194  Min(alpha.water) = -4.37013e-08  Max(alpha.water) = 1
DICPCG:  Solving for p_rgh, Initial residual = 6.06942e-05, Final residual = 9.24372e-08, No Iterations 46
time step continuity errors : sum local = 9.03058e-08, global = -6.94455e-09, cumulative = 0.000448841
ExecutionTime = 0.62 s  ClockTime = 0 s

Courant Number mean: 0.0835127 max: 1.04925
Interface Courant Number mean: 0.00742619 max: 0.755625
deltaT = 0.00229644
Time = 0.0954071

PIMPLE: iteration 1
DICPCG:  Solving for p_rgh, Initial residual = 0.0382487, Final residual = 0.000537857, No Iterations 1
smoothSolver:  Solving for alpha.water, Initial residual = 0.00345611, Final residual = 2.99818e-09, No Iterations 3
Phase-1 volume fraction = 0.130194  Min(alpha.water) = -2.85588e-14  Max(alpha.water) = 1
time step continuity errors : sum local = 0.00053977, global = -3.00234e-08, cumulative = 0.000448811
MULES: Correcting alpha.water
DICPCG:  Solving for p_rgh, Initial residual = 0.00060325, Final residual = 2.28789e-05, No Iterations 12
MULES: Correcting alpha.water
time step continuity errors : sum local = 2.21706e-05, global = 3.68709e-06, cumulative = 0.000452498
Phase-1 volume fraction = 0.130194  Min(alpha.water) = -4.37013e-08  Max(alpha.water) = 1
DICPCG:  Solving for p_rgh, Initial residual = 6.50548e-05, Final residual = 9.19796e-08, No Iterations 46
time step continuity errors : sum local = 8.99723e-08, global = -2.92571e-09, cumulative = 0.000452495
ExecutionTime = 0.63 s  ClockTime = 0 s

DICPCG:  Solving for p_rgh, Initial residual = 0.0382487, Final residual = 0.000537857, No Iterations 1
Courant Number mean: 0.0852598 max: 1.11074
time step continuity errors : sum local = 0.00053977, global = -3.00234e-08, cumulative = 0.000448811
Interface Courant Number mean: 0.00766504 max: 0.916449
deltaT = 0.00229644
Time = 0.0977036

PIMPLE: iteration 1
smoothSolver:  Solving for alpha.water, Initial residual = 0.00355282, Final residual = 3.49132e-09, No Iterations 3
Phase-1 volume fraction = 0.130194  Min(alpha.water) = -1.66407e-14  Max(alpha.water) = 1
DICPCG:  Solving for p_rgh, Initial residual = 0.00060325, Final residual = 2.28789e-05, No Iterations 12
MULES: Correcting alpha.water
time step continuity errors : sum local = 2.21706e-05, global = 3.68709e-06, cumulative = 0.000452498
MULES: Correcting alpha.water
Phase-1 volume fraction = 0.130194  Min(alpha.water) = -3.28679e-09  Max(alpha.water) = 1
DICPCG:  Solving for p_rgh, Initial residual = 6.50548e-05, Final residual = 9.19796e-08, No Iterations 46
time step continuity errors : sum local = 8.99723e-08, global = -2.92571e-09, cumulative = 0.000452495
ExecutionTime = 0.65 s  ClockTime = 0 s

DICPCG:  Solving for p_rgh, Initial residual = 0.0359225, Final residual = 0.000747224, No Iterations 1
Courant Number mean: 0.0852598 max: 1.11074
time step continuity errors : sum local = 0.000709736, global = -1.36265e-08, cumulative = 0.000452482
Interface Courant Number mean: 0.00766504 max: 0.916449
deltaT = 0.00229644
Time = 0.0977036

PIMPLE: iteration 1
smoothSolver:  Solving for alpha.water, Initial residual = 0.00355282, Final residual = 3.49132e-09, No Iterations 3
Phase-1 volume fraction = 0.130194  Min(alpha.water) = -1.66407e-14  Max(alpha.water) = 1
DICPCG:  Solving for p_rgh, Initial residual = 0.000828252, Final residual = 3.11264e-05, No Iterations 12
MULES: Correcting alpha.water
time step continuity errors : sum local = 2.8605e-05, global = 5.10193e-06, cumulative = 0.000457584
MULES: Correcting alpha.water
Phase-1 volume fraction = 0.130194  Min(alpha.water) = -3.28679e-09  Max(alpha.water) = 1
DICPCG:  Solving for p_rgh, Initial residual = 9.21608e-05, Final residual = 7.41563e-08, No Iterations 48
time step continuity errors : sum local = 6.88147e-08, global = -5.58731e-10, cumulative = 0.000457583
ExecutionTime = 0.65 s  ClockTime = 0 s

DICPCG:  Solving for p_rgh, Initial residual = 0.0359225, Final residual = 0.000747224, No Iterations 1
Courant Number mean: 0.0870388 max: 1.15321
time step continuity errors : sum local = 0.000709736, global = -1.36265e-08, cumulative = 0.000452482
Interface Courant Number mean: 0.0078046 max: 1.01443
deltaT = 0.00229644
Time = 0.1

PIMPLE: iteration 1
smoothSolver:  Solving for alpha.water, Initial residual = 0.0036489, Final residual = 3.96886e-09, No Iterations 3
Phase-1 volume fraction = 0.130194  Min(alpha.water) = -5.30402e-15  Max(alpha.water) = 1
DICPCG:  Solving for p_rgh, Initial residual = 0.000828252, Final residual = 3.11264e-05, No Iterations 12
MULES: Correcting alpha.water
time step continuity errors : sum local = 2.8605e-05, global = 5.10193e-06, cumulative = 0.000457584
MULES: Correcting alpha.water
Phase-1 volume fraction = 0.130194  Min(alpha.water) = -8.63414e-10  Max(alpha.water) = 1
DICPCG:  Solving for p_rgh, Initial residual = 9.21608e-05, Final residual = 7.41563e-08, No Iterations 48
time step continuity errors : sum local = 6.88147e-08, global = -5.58731e-10, cumulative = 0.000457583
ExecutionTime = 0.67 s  ClockTime = 0 s

DICPCG:  Solving for p_rgh, Initial residual = 0.0326682, Final residual = 0.00085261, No Iterations 1
Courant Number mean: 0.0870388 max: 1.15321
time step continuity errors : sum local = 0.000768615, global = -3.14435e-08, cumulative = 0.000457552
Interface Courant Number mean: 0.0078046 max: 1.01443
deltaT = 0.00229644
Time = 0.1

PIMPLE: iteration 1
smoothSolver:  Solving for alpha.water, Initial residual = 0.0036489, Final residual = 3.96886e-09, No Iterations 3
Phase-1 volume fraction = 0.130194  Min(alpha.water) = -5.30402e-15  Max(alpha.water) = 1
MULES: Correcting alpha.water
DICPCG:  Solving for p_rgh, Initial residual = 0.000945237, Final residual = 3.5423e-05, No Iterations 12
time step continuity errors : sum local = 3.10278e-05, global = 5.60152e-06, cumulative = 0.000463153
MULES: Correcting alpha.water
Phase-1 volume fraction = 0.130194  Min(alpha.water) = -8.63414e-10  Max(alpha.water) = 1
DICPCG:  Solving for p_rgh, Initial residual = 0.00010456, Final residual = 8.48028e-08, No Iterations 48
DICPCG:  Solving for p_rgh, Initial residual = 0.0326682, Final residual = 0.00085261, No Iterations 1
time step continuity errors : sum local = 7.50375e-08, global = -1.75062e-09, cumulative = 0.000463151
time step continuity errors : sum local = 0.000768615, global = -3.14435e-08, cumulative = 0.000457552
DICPCG:  Solving for p_rgh, Initial residual = 0.000945237, Final residual = 3.5423e-05, No Iterations 12
time step continuity errors : sum local = 3.10278e-05, global = 5.60152e-06, cumulative = 0.000463153
DICPCG:  Solving for p_rgh, Initial residual = 0.00010456, Final residual = 8.48028e-08, No Iterations 48
time step continuity errors : sum local = 7.50375e-08, global = -1.75062e-09, cumulative = 0.000463151
ExecutionTime = 0.69 s  ClockTime = 0 s

Courant Number mean: 0.0888995 max: 1.17817
Interface Courant Number mean: 0.00827956 max: 1.00621
deltaT = 0.00192308
Time = 0.101923

PIMPLE: iteration 1
smoothSolver:  Solving for alpha.water, Initial residual = 0.00312927, Final residual = 1.64656e-09, No Iterations 3
Phase-1 volume fraction = 0.130194  Min(alpha.water) = -2.75977e-15  Max(alpha.water) = 1
MULES: Correcting alpha.water
MULES: Correcting alpha.water
Phase-1 volume fraction = 0.130194  Min(alpha.water) = -3.5461e-12  Max(alpha.water) = 1
ExecutionTime = 0.71 s  ClockTime = 0 s

DICPCG:  Solving for p_rgh, Initial residual = 0.027289, Final residual = 0.00067247, No Iterations 1
time step continuity errors : sum local = 0.000428571, global = -4.07089e-08, cumulative = 0.000463111
Courant Number mean: 0.0888995 max: 1.17817
Interface Courant Number mean: 0.00827956 max: 1.00621
deltaT = 0.00192308
Time = 0.101923

PIMPLE: iteration 1
smoothSolver:  Solving for alpha.water, Initial residual = 0.00312927, Final residual = 1.64656e-09, No Iterations 3
Phase-1 volume fraction = 0.130194  Min(alpha.water) = -2.75977e-15  Max(alpha.water) = 1
DICPCG:  Solving for p_rgh, Initial residual = 0.000739212, Final residual = 3.45307e-05, No Iterations 11
MULES: Correcting alpha.water
time step continuity errors : sum local = 2.15064e-05, global = 3.32818e-06, cumulative = 0.000466439
MULES: Correcting alpha.water
Phase-1 volume fraction = 0.130194  Min(alpha.water) = -3.5461e-12  Max(alpha.water) = 1
DICPCG:  Solving for p_rgh, Initial residual = 7.71927e-05, Final residual = 9.97636e-08, No Iterations 46
time step continuity errors : sum local = 6.2682e-08, global = -4.05935e-09, cumulative = 0.000466435
ExecutionTime = 0.71 s  ClockTime = 0 s

DICPCG:  Solving for p_rgh, Initial residual = 0.027289, Final residual = 0.00067247, No Iterations 1
Courant Number mean: 0.0756577 max: 0.986129
Interface Courant Number mean: 0.00733066 max: 0.912074
deltaT = 0.00192308
Time = 0.103846

PIMPLE: iteration 1
time step continuity errors : sum local = 0.000428571, global = -4.07089e-08, cumulative = 0.000463111
smoothSolver:  Solving for alpha.water, Initial residual = 0.00317219, Final residual = 1.75591e-09, No Iterations 3
Phase-1 volume fraction = 0.130194  Min(alpha.water) = -2.38173e-15  Max(alpha.water) = 1
MULES: Correcting alpha.water
DICPCG:  Solving for p_rgh, Initial residual = 0.000739212, Final residual = 3.45307e-05, No Iterations 11
time step continuity errors : sum local = 2.15064e-05, global = 3.32818e-06, cumulative = 0.000466439
MULES: Correcting alpha.water
Phase-1 volume fraction = 0.130194  Min(alpha.water) = -8.43451e-12  Max(alpha.water) = 1
DICPCG:  Solving for p_rgh, Initial residual = 7.71927e-05, Final residual = 9.97636e-08, No Iterations 46
DICPCG:  Solving for p_rgh, Initial residual = 0.027193, Final residual = 0.000641921, No Iterations 1
time step continuity errors : sum local = 6.2682e-08, global = -4.05935e-09, cumulative = 0.000466435
ExecutionTime = 0.73 s  ClockTime = 0 s

time step continuity errors : sum local = 0.000410845, global = -3.1531e-08, cumulative = 0.000466403
Courant Number mean: 0.0756577 max: 0.986129
Interface Courant Number mean: 0.00733066 max: 0.912074
deltaT = 0.00192308
Time = 0.103846

PIMPLE: iteration 1
smoothSolver:  Solving for alpha.water, Initial residual = 0.00317219, Final residual = 1.75591e-09, No Iterations 3
Phase-1 volume fraction = 0.130194  Min(alpha.water) = -2.38173e-15  Max(alpha.water) = 1
DICPCG:  Solving for p_rgh, Initial residual = 0.00070925, Final residual = 3.43822e-05, No Iterations 11
MULES: Correcting alpha.water
time step continuity errors : sum local = 2.15055e-05, global = 3.25931e-06, cumulative = 0.000469663
MULES: Correcting alpha.water
Phase-1 volume fraction = 0.130194  Min(alpha.water) = -8.43451e-12  Max(alpha.water) = 1
DICPCG:  Solving for p_rgh, Initial residual = 7.21803e-05, Final residual = 7.79607e-08, No Iterations 45
time step continuity errors : sum local = 4.91589e-08, global = -6.57681e-09, cumulative = 0.000469656
ExecutionTime = 0.73 s  ClockTime = 0 s

DICPCG:  Solving for p_rgh, Initial residual = 0.027193, Final residual = 0.000641921, No Iterations 1
Courant Number mean: 0.0767749 max: 0.988835
Interface Courant Number mean: 0.00698698 max: 0.911874
deltaT = 0.00192308
Time = 0.105769

PIMPLE: iteration 1
time step continuity errors : sum local = 0.000410845, global = -3.1531e-08, cumulative = 0.000466403
smoothSolver:  Solving for alpha.water, Initial residual = 0.00322607, Final residual = 1.92091e-09, No Iterations 3
Phase-1 volume fraction = 0.130194  Min(alpha.water) = -2.01011e-15  Max(alpha.water) = 1
MULES: Correcting alpha.water
DICPCG:  Solving for p_rgh, Initial residual = 0.00070925, Final residual = 3.43822e-05, No Iterations 11
time step continuity errors : sum local = 2.15055e-05, global = 3.25931e-06, cumulative = 0.000469663
MULES: Correcting alpha.water
Phase-1 volume fraction = 0.130194  Min(alpha.water) = -1.1016e-10  Max(alpha.water) = 1
DICPCG:  Solving for p_rgh, Initial residual = 7.21803e-05, Final residual = 7.79607e-08, No Iterations 45
DICPCG:  Solving for p_rgh, Initial residual = 0.0265663, Final residual = 0.000658001, No Iterations 1
time step continuity errors : sum local = 4.91589e-08, global = -6.57681e-09, cumulative = 0.000469656
ExecutionTime = 0.75 s  ClockTime = 0 s

time step continuity errors : sum local = 0.000422524, global = -3.99515e-08, cumulative = 0.000469616
Courant Number mean: 0.0767749 max: 0.988835
Interface Courant Number mean: 0.00698698 max: 0.911874
deltaT = 0.00192308
Time = 0.105769

PIMPLE: iteration 1
smoothSolver:  Solving for alpha.water, Initial residual = 0.00322607, Final residual = 1.92091e-09, No Iterations 3
Phase-1 volume fraction = 0.130194  Min(alpha.water) = -2.01011e-15  Max(alpha.water) = 1
DICPCG:  Solving for p_rgh, Initial residual = 0.000731468, Final residual = 2.41724e-05, No Iterations 12
MULES: Correcting alpha.water
time step continuity errors : sum local = 1.518e-05, global = 3.16603e-06, cumulative = 0.000472782
MULES: Correcting alpha.water
Phase-1 volume fraction = 0.130194  Min(alpha.water) = -1.1016e-10  Max(alpha.water) = 1
DICPCG:  Solving for p_rgh, Initial residual = 7.15669e-05, Final residual = 8.49051e-08, No Iterations 45
time step continuity errors : sum local = 5.37634e-08, global = -7.0158e-09, cumulative = 0.000472775
ExecutionTime = 0.76 s  ClockTime = 0 s

DICPCG:  Solving for p_rgh, Initial residual = 0.0265663, Final residual = 0.000658001, No Iterations 1
Courant Number mean: 0.0778715 max: 0.992123
Interface Courant Number mean: 0.00693087 max: 0.915823
deltaT = 0.00192308
Time = 0.107692

PIMPLE: iteration 1
time step continuity errors : sum local = 0.000422524, global = -3.99515e-08, cumulative = 0.000469616
smoothSolver:  Solving for alpha.water, Initial residual = 0.00330075, Final residual = 2.02856e-09, No Iterations 3
Phase-1 volume fraction = 0.130194  Min(alpha.water) = -1.63799e-15  Max(alpha.water) = 1
MULES: Correcting alpha.water
DICPCG:  Solving for p_rgh, Initial residual = 0.000731468, Final residual = 2.41724e-05, No Iterations 12
time step continuity errors : sum local = 1.518e-05, global = 3.16603e-06, cumulative = 0.000472782
MULES: Correcting alpha.water
Phase-1 volume fraction = 0.130194  Min(alpha.water) = -5.76024e-10  Max(alpha.water) = 1
DICPCG:  Solving for p_rgh, Initial residual = 7.15669e-05, Final residual = 8.49051e-08, No Iterations 45
DICPCG:  Solving for p_rgh, Initial residual = 0.0272151, Final residual = 0.000661554, No Iterations 1
time step continuity errors : sum local = 5.37634e-08, global = -7.0158e-09, cumulative = 0.000472775
ExecutionTime = 0.77 s  ClockTime = 0 s

time step continuity errors : sum local = 0.000435112, global = -3.12165e-08, cumulative = 0.000472744
Courant Number mean: 0.0778715 max: 0.992123
Interface Courant Number mean: 0.00693087 max: 0.915823
deltaT = 0.00192308
Time = 0.107692

PIMPLE: iteration 1
smoothSolver:  Solving for alpha.water, Initial residual = 0.00330075, Final residual = 2.02856e-09, No Iterations 3
Phase-1 volume fraction = 0.130194  Min(alpha.water) = -1.63799e-15  Max(alpha.water) = 1
DICPCG:  Solving for p_rgh, Initial residual = 0.000740001, Final residual = 2.52134e-05, No Iterations 12
MULES: Correcting alpha.water
time step continuity errors : sum local = 1.6218e-05, global = 3.20169e-06, cumulative = 0.000475946
MULES: Correcting alpha.water
Phase-1 volume fraction = 0.130194  Min(alpha.water) = -5.76024e-10  Max(alpha.water) = 1
DICPCG:  Solving for p_rgh, Initial residual = 7.57807e-05, Final residual = 8.17132e-08, No Iterations 46
time step continuity errors : sum local = 5.2995e-08, global = -4.9893e-09, cumulative = 0.000475941
ExecutionTime = 0.78 s  ClockTime = 0 s

Courant Number mean: 0.0789702 max: 0.998528
Interface Courant Number mean: 0.00713358 max: 0.998528
deltaT = 0.00192308
Time = 0.109615

PIMPLE: iteration 1
DICPCG:  Solving for p_rgh, Initial residual = 0.0272151, Final residual = 0.000661554, No Iterations 1
smoothSolver:  Solving for alpha.water, Initial residual = 0.00336186, Final residual = 2.2522e-09, No Iterations 3
Phase-1 volume fraction = 0.130194  Min(alpha.water) = -1.46304e-15  Max(alpha.water) = 1
time step continuity errors : sum local = 0.000435112, global = -3.12165e-08, cumulative = 0.000472744
MULES: Correcting alpha.water
MULES: Correcting alpha.water
DICPCG:  Solving for p_rgh, Initial residual = 0.000740001, Final residual = 2.52134e-05, No Iterations 12
Phase-1 volume fraction = 0.130194  Min(alpha.water) = -2.62223e-10  Max(alpha.water) = 1
time step continuity errors : sum local = 1.6218e-05, global = 3.20169e-06, cumulative = 0.000475946
DICPCG:  Solving for p_rgh, Initial residual = 0.0276362, Final residual = 0.00057716, No Iterations 1
time step continuity errors : sum local = 0.000395781, global = -2.75617e-08, cumulative = 0.000475913
DICPCG:  Solving for p_rgh, Initial residual = 7.57807e-05, Final residual = 8.17132e-08, No Iterations 46
time step continuity errors : sum local = 5.2995e-08, global = -4.9893e-09, cumulative = 0.000475941
ExecutionTime = 0.79 s  ClockTime = 0 s

DICPCG:  Solving for p_rgh, Initial residual = 0.000649834, Final residual = 3.24724e-05, No Iterations 11
Courant Number mean: 0.0789702 max: 0.998528
time step continuity errors : sum local = 2.17421e-05, global = 2.67542e-06, cumulative = 0.000478588
Interface Courant Number mean: 0.00713358 max: 0.998528
deltaT = 0.00192308
Time = 0.109615

PIMPLE: iteration 1
smoothSolver:  Solving for alpha.water, Initial residual = 0.00336186, Final residual = 2.2522e-09, No Iterations 3
Phase-1 volume fraction = 0.130194  Min(alpha.water) = -1.46304e-15  Max(alpha.water) = 1
MULES: Correcting alpha.water
DICPCG:  Solving for p_rgh, Initial residual = 7.82764e-05, Final residual = 8.4504e-08, No Iterations 45
MULES: Correcting alpha.water
time step continuity errors : sum local = 5.70119e-08, global = -5.18432e-09, cumulative = 0.000478583
ExecutionTime = 0.8 s  ClockTime = 0 s

Phase-1 volume fraction = 0.130194  Min(alpha.water) = -2.62223e-10  Max(alpha.water) = 1
Courant Number mean: 0.0801173 max: 1.01008
Interface Courant Number mean: 0.00753751 max: 1.01008
deltaT = 0.00192308
Time = 0.111538

PIMPLE: iteration 1
smoothSolver:  Solving for alpha.water, Initial residual = 0.00341658, Final residual = 2.53666e-09, No Iterations 3
Phase-1 volume fraction = 0.130194  Min(alpha.water) = -1.31362e-15  Max(alpha.water) = 1
MULES: Correcting alpha.water
DICPCG:  Solving for p_rgh, Initial residual = 0.0276362, Final residual = 0.00057716, No Iterations 1
MULES: Correcting alpha.water
time step continuity errors : sum local = 0.000395781, global = -2.75617e-08, cumulative = 0.000475913
Phase-1 volume fraction = 0.130194  Min(alpha.water) = -5.8974e-09  Max(alpha.water) = 1
DICPCG:  Solving for p_rgh, Initial residual = 0.000649834, Final residual = 3.24724e-05, No Iterations 11
time step continuity errors : sum local = 2.17421e-05, global = 2.67542e-06, cumulative = 0.000478588
DICPCG:  Solving for p_rgh, Initial residual = 0.0340041, Final residual = 0.000564895, No Iterations 1
time step continuity errors : sum local = 0.000413695, global = -2.05979e-08, cumulative = 0.000478563
DICPCG:  Solving for p_rgh, Initial residual = 0.000638378, Final residual = 2.62266e-05, No Iterations 12
DICPCG:  Solving for p_rgh, Initial residual = 7.82764e-05, Final residual = 8.4504e-08, No Iterations 45
time step continuity errors : sum local = 1.86055e-05, global = 2.45362e-06, cumulative = 0.000481016
time step continuity errors : sum local = 5.70119e-08, global = -5.18432e-09, cumulative = 0.000478583
ExecutionTime = 0.82 s  ClockTime = 0 s

Courant Number mean: 0.0801173 max: 1.01008
Interface Courant Number mean: 0.00753751 max: 1.01008
deltaT = 0.00192308
Time = 0.111538

PIMPLE: iteration 1
smoothSolver:  Solving for alpha.water, Initial residual = 0.00341658, Final residual = 2.53666e-09, No Iterations 3
Phase-1 volume fraction = 0.130194  Min(alpha.water) = -1.31362e-15  Max(alpha.water) = 1
MULES: Correcting alpha.water
DICPCG:  Solving for p_rgh, Initial residual = 7.61067e-05, Final residual = 9.32267e-08, No Iterations 45
MULES: Correcting alpha.water
time step continuity errors : sum local = 6.66305e-08, global = -4.28824e-09, cumulative = 0.000481012
ExecutionTime = 0.82 s  ClockTime = 0 s

Phase-1 volume fraction = 0.130194  Min(alpha.water) = -5.8974e-09  Max(alpha.water) = 1
Courant Number mean: 0.081341 max: 1.0288
Interface Courant Number mean: 0.00756984 max: 1.0288
deltaT = 0.0018315
Time = 0.11337

PIMPLE: iteration 1
smoothSolver:  Solving for alpha.water, Initial residual = 0.00328408, Final residual = 2.06924e-09, No Iterations 3
Phase-1 volume fraction = 0.130194  Min(alpha.water) = -1.19521e-15  Max(alpha.water) = 1
MULES: Correcting alpha.water
DICPCG:  Solving for p_rgh, Initial residual = 0.0340041, Final residual = 0.000564895, No Iterations 1
MULES: Correcting alpha.water
time step continuity errors : sum local = 0.000413695, global = -2.05979e-08, cumulative = 0.000478563
Phase-1 volume fraction = 0.130194  Min(alpha.water) = -1.46928e-09  Max(alpha.water) = 1
DICPCG:  Solving for p_rgh, Initial residual = 0.000638378, Final residual = 2.62266e-05, No Iterations 12
time step continuity errors : sum local = 1.86055e-05, global = 2.45362e-06, cumulative = 0.000481016
DICPCG:  Solving for p_rgh, Initial residual = 0.0304583, Final residual = 0.000616303, No Iterations 1
time step continuity errors : sum local = 0.000390753, global = -1.34086e-08, cumulative = 0.000480999
DICPCG:  Solving for p_rgh, Initial residual = 0.000689534, Final residual = 2.63595e-05, No Iterations 12
DICPCG:  Solving for p_rgh, Initial residual = 7.61067e-05, Final residual = 9.32267e-08, No Iterations 45
time step continuity errors : sum local = 1.6269e-05, global = 2.77967e-06, cumulative = 0.000483778
time step continuity errors : sum local = 6.66305e-08, global = -4.28824e-09, cumulative = 0.000481012
ExecutionTime = 0.83 s  ClockTime = 0 s

Courant Number mean: 0.081341 max: 1.0288
[...]

Courant Number mean: 0.228464 max: 0.973874
Interface Courant Number mean: 0.0490591 max: 0.971212
deltaT = 0.003125
Time = 0.953125

PIMPLE: iteration 1
smoothSolver:  Solving for alpha.water, Initial residual = 0.00923677, Final residual = 9.92252e-09, No Iterations 3
Phase-1 volume fraction = 0.127378  Min(alpha.water) = -2.18024e-08  Max(alpha.water) = 1
MULES: Correcting alpha.water
MULES: Correcting alpha.water
Phase-1 volume fraction = 0.127378  Min(alpha.water) = -2.16941e-06  Max(alpha.water) = 1
DICPCG:  Solving for p_rgh, Initial residual = 0.042992, Final residual = 0.00126823, No Iterations 2
time step continuity errors : sum local = 0.00166364, global = -1.55905e-06, cumulative = 0.00417796
DICPCG:  Solving for p_rgh, Initial residual = 0.00158638, Final residual = 7.05061e-05, No Iterations 11
time step continuity errors : sum local = 9.06909e-05, global = 4.50012e-06, cumulative = 0.00418246
DICPCG:  Solving for p_rgh, Initial residual = 0.000332485, Final residual = 8.75943e-08, No Iterations 49
time step continuity errors : sum local = 1.131e-07, global = -2.0338e-09, cumulative = 0.00418245
ExecutionTime = 11.21 s  ClockTime = 11 s

ExecutionTime = 11.44 s  ClockTime = 11 s

Courant Number mean: 0.243859 max: 1.04505
Interface Courant Number mean: 0.0524211 max: 1.03893
deltaT = 0.00292969
Time = 0.956055

PIMPLE: iteration 1
End

smoothSolver:  Solving for alpha.water, Initial residual = 0.00865169, Final residual = 7.15911e-09, No Iterations 3
Phase-1 volume fraction = 0.127378  Min(alpha.water) = -1.88116e-08  Max(alpha.water) = 1
MULES: Correcting alpha.water
MULES: Correcting alpha.water
Phase-1 volume fraction = 0.127378  Min(alpha.water) = -1.80625e-06  Max(alpha.water) = 1
DICPCG:  Solving for p_rgh, Initial residual = 0.0407315, Final residual = 0.00121313, No Iterations 2
time step continuity errors : sum local = 0.00137884, global = -1.62736e-06, cumulative = 0.00418083
DICPCG:  Solving for p_rgh, Initial residual = 0.00152041, Final residual = 7.38349e-05, No Iterations 10
time step continuity errors : sum local = 8.23348e-05, global = -2.2451e-06, cumulative = 0.00417858
DICPCG:  Solving for p_rgh, Initial residual = 0.00031133, Final residual = 9.30909e-08, No Iterations 49
time step continuity errors : sum local = 1.04044e-07, global = 2.25174e-09, cumulative = 0.00417858
ExecutionTime = 11.23 s  ClockTime = 11 s

Courant Number mean: 0.230355 max: 0.989228
Interface Courant Number mean: 0.0487479 max: 0.935716
deltaT = 0.00292969
Time = 0.958984

PIMPLE: iteration 1
smoothSolver:  Solving for alpha.water, Initial residual = 0.00876634, Final residual = 7.56455e-09, No Iterations 3
Phase-1 volume fraction = 0.127378  Min(alpha.water) = -1.63368e-08  Max(alpha.water) = 1
MULES: Correcting alpha.water
MULES: Correcting alpha.water
Phase-1 volume fraction = 0.127378  Min(alpha.water) = -1.40817e-06  Max(alpha.water) = 1
DICPCG:  Solving for p_rgh, Initial residual = 0.0403985, Final residual = 0.00116707, No Iterations 2
time step continuity errors : sum local = 0.00135515, global = -1.57635e-06, cumulative = 0.00417701
DICPCG:  Solving for p_rgh, Initial residual = 0.00147152, Final residual = 6.38869e-05, No Iterations 9
time step continuity errors : sum local = 7.26974e-05, global = 1.77107e-06, cumulative = 0.00417878
DICPCG:  Solving for p_rgh, Initial residual = 0.000305088, Final residual = 8.97453e-08, No Iterations 48
time step continuity errors : sum local = 1.02358e-07, global = -7.64563e-09, cumulative = 0.00417877
ExecutionTime = 11.25 s  ClockTime = 11 s

Courant Number mean: 0.232502 max: 1.00079
Interface Courant Number mean: 0.0506534 max: 0.948364
deltaT = 0.00292969
Time = 0.961914

PIMPLE: iteration 1
smoothSolver:  Solving for alpha.water, Initial residual = 0.0087523, Final residual = 8.22073e-09, No Iterations 3
Phase-1 volume fraction = 0.127378  Min(alpha.water) = -1.42728e-08  Max(alpha.water) = 1
MULES: Correcting alpha.water
MULES: Correcting alpha.water
Phase-1 volume fraction = 0.127378  Min(alpha.water) = -2.23684e-06  Max(alpha.water) = 1
DICPCG:  Solving for p_rgh, Initial residual = 0.0403232, Final residual = 0.00125614, No Iterations 2
time step continuity errors : sum local = 0.00141989, global = -2.31124e-06, cumulative = 0.00417646
DICPCG:  Solving for p_rgh, Initial residual = 0.00155282, Final residual = 6.99892e-05, No Iterations 9
time step continuity errors : sum local = 7.77886e-05, global = -3.49407e-06, cumulative = 0.00417297
DICPCG:  Solving for p_rgh, Initial residual = 0.000312975, Final residual = 7.7306e-08, No Iterations 47
time step continuity errors : sum local = 8.5972e-08, global = -1.46247e-09, cumulative = 0.00417296
ExecutionTime = 11.27 s  ClockTime = 11 s

Courant Number mean: 0.234658 max: 1.00892
Interface Courant Number mean: 0.0518386 max: 0.940568
deltaT = 0.00292969
Time = 0.964844

PIMPLE: iteration 1
smoothSolver:  Solving for alpha.water, Initial residual = 0.00879928, Final residual = 8.85182e-09, No Iterations 3
Phase-1 volume fraction = 0.127378  Min(alpha.water) = -1.25345e-08  Max(alpha.water) = 1
MULES: Correcting alpha.water
MULES: Correcting alpha.water
Phase-1 volume fraction = 0.127378  Min(alpha.water) = -1.37288e-06  Max(alpha.water) = 1
DICPCG:  Solving for p_rgh, Initial residual = 0.0451572, Final residual = 0.00138097, No Iterations 2
time step continuity errors : sum local = 0.0015855, global = -2.25483e-06, cumulative = 0.00417071
DICPCG:  Solving for p_rgh, Initial residual = 0.0017121, Final residual = 7.34815e-05, No Iterations 10
time step continuity errors : sum local = 8.27346e-05, global = 2.28111e-06, cumulative = 0.00417299
DICPCG:  Solving for p_rgh, Initial residual = 0.000333174, Final residual = 7.927e-08, No Iterations 48
time step continuity errors : sum local = 8.95137e-08, global = 1.06483e-08, cumulative = 0.004173
ExecutionTime = 11.29 s  ClockTime = 11 s

Courant Number mean: 0.236728 max: 1.01319
Interface Courant Number mean: 0.0514166 max: 0.926656
deltaT = 0.00292969
Time = 0.967773

PIMPLE: iteration 1
smoothSolver:  Solving for alpha.water, Initial residual = 0.00882171, Final residual = 9.64097e-09, No Iterations 3
Phase-1 volume fraction = 0.127378  Min(alpha.water) = -1.09522e-08  Max(alpha.water) = 1
MULES: Correcting alpha.water
MULES: Correcting alpha.water
Phase-1 volume fraction = 0.127378  Min(alpha.water) = -7.57644e-07  Max(alpha.water) = 1
DICPCG:  Solving for p_rgh, Initial residual = 0.0424606, Final residual = 0.00140191, No Iterations 2
time step continuity errors : sum local = 0.00161583, global = -3.43882e-06, cumulative = 0.00416956
DICPCG:  Solving for p_rgh, Initial residual = 0.00174854, Final residual = 7.90614e-05, No Iterations 10
time step continuity errors : sum local = 8.93485e-05, global = 3.71215e-07, cumulative = 0.00416993
DICPCG:  Solving for p_rgh, Initial residual = 0.00035485, Final residual = 8.17151e-08, No Iterations 48
time step continuity errors : sum local = 9.24909e-08, global = 1.57489e-08, cumulative = 0.00416995
ExecutionTime = 11.31 s  ClockTime = 11 s

Courant Number mean: 0.238783 max: 1.02134
Interface Courant Number mean: 0.0517192 max: 0.914671
deltaT = 0.00292969
Time = 0.970703

PIMPLE: iteration 1
smoothSolver:  Solving for alpha.water, Initial residual = 0.00887731, Final residual = 2.27302e-10, No Iterations 4
Phase-1 volume fraction = 0.127378  Min(alpha.water) = -9.50964e-09  Max(alpha.water) = 1
MULES: Correcting alpha.water
MULES: Correcting alpha.water
Phase-1 volume fraction = 0.127378  Min(alpha.water) = -7.20085e-07  Max(alpha.water) = 1
DICPCG:  Solving for p_rgh, Initial residual = 0.0417869, Final residual = 0.00128526, No Iterations 2
time step continuity errors : sum local = 0.0014607, global = -3.82492e-06, cumulative = 0.00416612
DICPCG:  Solving for p_rgh, Initial residual = 0.00158839, Final residual = 7.88205e-05, No Iterations 9
time step continuity errors : sum local = 8.81486e-05, global = -1.04999e-06, cumulative = 0.00416507
DICPCG:  Solving for p_rgh, Initial residual = 0.000320653, Final residual = 8.18861e-08, No Iterations 48
time step continuity errors : sum local = 9.14948e-08, global = 1.47875e-08, cumulative = 0.00416509
ExecutionTime = 11.33 s  ClockTime = 11 s

Courant Number mean: 0.240729 max: 1.02686
Interface Courant Number mean: 0.0516841 max: 0.921638
deltaT = 0.00292969
Time = 0.973633

PIMPLE: iteration 1
smoothSolver:  Solving for alpha.water, Initial residual = 0.0088898, Final residual = 2.29687e-10, No Iterations 4
Phase-1 volume fraction = 0.127378  Min(alpha.water) = -8.21678e-09  Max(alpha.water) = 1
MULES: Correcting alpha.water
MULES: Correcting alpha.water
Phase-1 volume fraction = 0.127378  Min(alpha.water) = -1.15275e-06  Max(alpha.water) = 1
DICPCG:  Solving for p_rgh, Initial residual = 0.0421417, Final residual = 0.00126569, No Iterations 2
time step continuity errors : sum local = 0.00146642, global = -4.73125e-06, cumulative = 0.00416036
DICPCG:  Solving for p_rgh, Initial residual = 0.00155782, Final residual = 7.22672e-05, No Iterations 9
time step continuity errors : sum local = 8.22732e-05, global = -2.17411e-07, cumulative = 0.00416014
DICPCG:  Solving for p_rgh, Initial residual = 0.000323899, Final residual = 7.89752e-08, No Iterations 48
time step continuity errors : sum local = 9.02185e-08, global = 1.81043e-08, cumulative = 0.00416016
ExecutionTime = 11.34 s  ClockTime = 11 s

Courant Number mean: 0.242545 max: 1.02635
Interface Courant Number mean: 0.0519924 max: 0.92108
deltaT = 0.00292969
Time = 0.976563

PIMPLE: iteration 1
smoothSolver:  Solving for alpha.water, Initial residual = 0.00888103, Final residual = 2.33638e-10, No Iterations 4
Phase-1 volume fraction = 0.127378  Min(alpha.water) = -7.07108e-09  Max(alpha.water) = 1
MULES: Correcting alpha.water
MULES: Correcting alpha.water
Phase-1 volume fraction = 0.127378  Min(alpha.water) = -4.60224e-07  Max(alpha.water) = 1
DICPCG:  Solving for p_rgh, Initial residual = 0.0412135, Final residual = 0.00137732, No Iterations 2
time step continuity errors : sum local = 0.00158371, global = -5.85257e-06, cumulative = 0.00415431
DICPCG:  Solving for p_rgh, Initial residual = 0.00168677, Final residual = 7.06242e-05, No Iterations 15
time step continuity errors : sum local = 7.97712e-05, global = 8.66731e-06, cumulative = 0.00416297
DICPCG:  Solving for p_rgh, Initial residual = 0.000349066, Final residual = 9.4707e-08, No Iterations 50
time step continuity errors : sum local = 1.07785e-07, global = -2.87466e-09, cumulative = 0.00416297
ExecutionTime = 11.36 s  ClockTime = 11 s

Courant Number mean: 0.244211 max: 1.02852
Interface Courant Number mean: 0.0510793 max: 0.908638
deltaT = 0.00292969
Time = 0.979492

PIMPLE: iteration 1
smoothSolver:  Solving for alpha.water, Initial residual = 0.00881385, Final residual = 2.36946e-10, No Iterations 4
Phase-1 volume fraction = 0.127378  Min(alpha.water) = -6.06881e-09  Max(alpha.water) = 1
MULES: Correcting alpha.water
MULES: Correcting alpha.water
Phase-1 volume fraction = 0.127378  Min(alpha.water) = -3.78033e-07  Max(alpha.water) = 1
DICPCG:  Solving for p_rgh, Initial residual = 0.0381987, Final residual = 0.00144734, No Iterations 2
time step continuity errors : sum local = 0.00164471, global = -7.24127e-06, cumulative = 0.00415573
DICPCG:  Solving for p_rgh, Initial residual = 0.00175835, Final residual = 8.47611e-05, No Iterations 13
time step continuity errors : sum local = 9.464e-05, global = 4.4524e-06, cumulative = 0.00416018
DICPCG:  Solving for p_rgh, Initial residual = 0.000347559, Final residual = 8.43578e-08, No Iterations 50
time step continuity errors : sum local = 9.43201e-08, global = -1.98991e-09, cumulative = 0.00416018
ExecutionTime = 11.38 s  ClockTime = 11 s

Courant Number mean: 0.245486 max: 1.03222
Interface Courant Number mean: 0.0514282 max: 0.915367
deltaT = 0.00292969
Time = 0.982422

PIMPLE: iteration 1
smoothSolver:  Solving for alpha.water, Initial residual = 0.00862255, Final residual = 2.33112e-10, No Iterations 4
Phase-1 volume fraction = 0.127378  Min(alpha.water) = -5.20449e-09  Max(alpha.water) = 1
MULES: Correcting alpha.water
MULES: Correcting alpha.water
Phase-1 volume fraction = 0.127378  Min(alpha.water) = -2.34471e-07  Max(alpha.water) = 1
DICPCG:  Solving for p_rgh, Initial residual = 0.0407136, Final residual = 0.0014411, No Iterations 2
time step continuity errors : sum local = 0.0016519, global = -8.5596e-06, cumulative = 0.00415162
DICPCG:  Solving for p_rgh, Initial residual = 0.00176691, Final residual = 7.87474e-05, No Iterations 16
time step continuity errors : sum local = 8.88486e-05, global = 5.27047e-06, cumulative = 0.00415689
DICPCG:  Solving for p_rgh, Initial residual = 0.000353379, Final residual = 6.64426e-08, No Iterations 51
time step continuity errors : sum local = 7.5364e-08, global = -5.39181e-09, cumulative = 0.00415688
ExecutionTime = 11.4 s  ClockTime = 11 s

Courant Number mean: 0.246585 max: 1.02839
Interface Courant Number mean: 0.05103 max: 0.890212
deltaT = 0.00292969
Time = 0.985352

PIMPLE: iteration 1
smoothSolver:  Solving for alpha.water, Initial residual = 0.00851968, Final residual = 2.27774e-10, No Iterations 4
Phase-1 volume fraction = 0.127378  Min(alpha.water) = -4.4631e-09  Max(alpha.water) = 1
MULES: Correcting alpha.water
MULES: Correcting alpha.water
Phase-1 volume fraction = 0.127378  Min(alpha.water) = -1.85499e-07  Max(alpha.water) = 1
DICPCG:  Solving for p_rgh, Initial residual = 0.0414823, Final residual = 0.00133619, No Iterations 2
time step continuity errors : sum local = 0.00160556, global = -1.06648e-05, cumulative = 0.00414622
DICPCG:  Solving for p_rgh, Initial residual = 0.00163406, Final residual = 8.05022e-05, No Iterations 15
time step continuity errors : sum local = 9.48695e-05, global = 2.85849e-06, cumulative = 0.00414908
DICPCG:  Solving for p_rgh, Initial residual = 0.000341874, Final residual = 6.72739e-08, No Iterations 51
time step continuity errors : sum local = 7.95762e-08, global = -5.26268e-09, cumulative = 0.00414907
ExecutionTime = 11.42 s  ClockTime = 11 s

Courant Number mean: 0.247368 max: 1.02392
Interface Courant Number mean: 0.0513595 max: 0.900486
deltaT = 0.00292969
Time = 0.988281

PIMPLE: iteration 1
smoothSolver:  Solving for alpha.water, Initial residual = 0.00849107, Final residual = 2.24542e-10, No Iterations 4
Phase-1 volume fraction = 0.127378  Min(alpha.water) = -3.82629e-09  Max(alpha.water) = 1
MULES: Correcting alpha.water
MULES: Correcting alpha.water
Phase-1 volume fraction = 0.127378  Min(alpha.water) = -1.61283e-07  Max(alpha.water) = 1
DICPCG:  Solving for p_rgh, Initial residual = 0.0427555, Final residual = 0.00133933, No Iterations 2
time step continuity errors : sum local = 0.00164502, global = -1.30703e-05, cumulative = 0.004136
DICPCG:  Solving for p_rgh, Initial residual = 0.00166263, Final residual = 7.96815e-05, No Iterations 16
time step continuity errors : sum local = 9.55839e-05, global = 3.92322e-06, cumulative = 0.00413993
DICPCG:  Solving for p_rgh, Initial residual = 0.000332704, Final residual = 7.39734e-08, No Iterations 51
time step continuity errors : sum local = 8.92391e-08, global = -2.57126e-09, cumulative = 0.00413992
ExecutionTime = 11.44 s  ClockTime = 11 s

Courant Number mean: 0.247943 max: 1.02527
Interface Courant Number mean: 0.0516617 max: 0.89598
deltaT = 0.00292969
Time = 0.991211

PIMPLE: iteration 1
smoothSolver:  Solving for alpha.water, Initial residual = 0.00845666, Final residual = 2.29194e-10, No Iterations 4
Phase-1 volume fraction = 0.127378  Min(alpha.water) = -3.78851e-08  Max(alpha.water) = 1
MULES: Correcting alpha.water
MULES: Correcting alpha.water
Phase-1 volume fraction = 0.127378  Min(alpha.water) = -1.00176e-06  Max(alpha.water) = 1
DICPCG:  Solving for p_rgh, Initial residual = 0.0397834, Final residual = 0.00141412, No Iterations 2
time step continuity errors : sum local = 0.0017211, global = -1.72952e-05, cumulative = 0.00412263
DICPCG:  Solving for p_rgh, Initial residual = 0.0017143, Final residual = 7.49785e-05, No Iterations 17
time step continuity errors : sum local = 8.95748e-05, global = -2.1584e-07, cumulative = 0.00412241
DICPCG:  Solving for p_rgh, Initial residual = 0.000313653, Final residual = 9.24464e-08, No Iterations 50
time step continuity errors : sum local = 1.1102e-07, global = 5.21273e-09, cumulative = 0.00412242
ExecutionTime = 11.46 s  ClockTime = 11 s

Courant Number mean: 0.248019 max: 1.02157
Interface Courant Number mean: 0.0514492 max: 0.875748
deltaT = 0.00292969
Time = 0.994141

PIMPLE: iteration 1
smoothSolver:  Solving for alpha.water, Initial residual = 0.0084235, Final residual = 2.44205e-10, No Iterations 4
Phase-1 volume fraction = 0.127378  Min(alpha.water) = -1.71975e-08  Max(alpha.water) = 1
MULES: Correcting alpha.water
MULES: Correcting alpha.water
Phase-1 volume fraction = 0.127378  Min(alpha.water) = -1.64006e-07  Max(alpha.water) = 1
DICPCG:  Solving for p_rgh, Initial residual = 0.0377515, Final residual = 0.00126558, No Iterations 2
time step continuity errors : sum local = 0.00151256, global = -2.01707e-05, cumulative = 0.00410225
DICPCG:  Solving for p_rgh, Initial residual = 0.00157278, Final residual = 7.31271e-05, No Iterations 18
time step continuity errors : sum local = 8.60344e-05, global = -1.05118e-05, cumulative = 0.00409174
DICPCG:  Solving for p_rgh, Initial residual = 0.000295246, Final residual = 7.67658e-08, No Iterations 51
time step continuity errors : sum local = 9.10248e-08, global = -4.68459e-12, cumulative = 0.00409174
ExecutionTime = 11.48 s  ClockTime = 11 s

Courant Number mean: 0.247573 max: 1.01158
Interface Courant Number mean: 0.0507645 max: 0.877878
deltaT = 0.00292969
Time = 0.99707

PIMPLE: iteration 1
smoothSolver:  Solving for alpha.water, Initial residual = 0.00832616, Final residual = 2.62578e-10, No Iterations 4
Phase-1 volume fraction = 0.127378  Min(alpha.water) = -9.54309e-09  Max(alpha.water) = 1
MULES: Correcting alpha.water
MULES: Correcting alpha.water
Phase-1 volume fraction = 0.127378  Min(alpha.water) = -1.61282e-07  Max(alpha.water) = 1
DICPCG:  Solving for p_rgh, Initial residual = 0.0370888, Final residual = 0.00126864, No Iterations 2
time step continuity errors : sum local = 0.00157154, global = -2.5695e-05, cumulative = 0.00406604
DICPCG:  Solving for p_rgh, Initial residual = 0.00157275, Final residual = 7.62132e-05, No Iterations 16
time step continuity errors : sum local = 9.27816e-05, global = 7.3555e-06, cumulative = 0.0040734
DICPCG:  Solving for p_rgh, Initial residual = 0.000322734, Final residual = 6.6531e-08, No Iterations 49
time step continuity errors : sum local = 8.15609e-08, global = 1.71801e-09, cumulative = 0.0040734
ExecutionTime = 11.5 s  ClockTime = 11 s

Courant Number mean: 0.247127 max: 1.00941
Interface Courant Number mean: 0.0511358 max: 0.844952
deltaT = 0.00292969
Time = 1

PIMPLE: iteration 1
smoothSolver:  Solving for alpha.water, Initial residual = 0.0081884, Final residual = 2.84706e-10, No Iterations 4
Phase-1 volume fraction = 0.127378  Min(alpha.water) = -3.43868e-09  Max(alpha.water) = 1
MULES: Correcting alpha.water
MULES: Correcting alpha.water
Phase-1 volume fraction = 0.127378  Min(alpha.water) = -1.30341e-06  Max(alpha.water) = 1
DICPCG:  Solving for p_rgh, Initial residual = 0.0358775, Final residual = 0.00129023, No Iterations 2
time step continuity errors : sum local = 0.0015802, global = -3.36441e-05, cumulative = 0.00403975
DICPCG:  Solving for p_rgh, Initial residual = 0.00158712, Final residual = 6.59442e-05, No Iterations 18
time step continuity errors : sum local = 7.94983e-05, global = 2.62996e-06, cumulative = 0.00404238
DICPCG:  Solving for p_rgh, Initial residual = 0.000298721, Final residual = 6.12507e-08, No Iterations 49
time step continuity errors : sum local = 7.42225e-08, global = 6.32427e-09, cumulative = 0.00404239
ExecutionTime = 11.54 s  ClockTime = 11 s

End

